*HEADING
ABAQUS job created on 25-Oct-12 at 19:21:26
** seed size = 0.0055
*#node, 233
*#element, 410
**
*NODE
 1,  0.100000001, 0.0416669995
      2,           0., 0.00833300035
      3,           0.,           0.
      4,  0.100000001,           0.
      5,  0.100000001, 0.0500000007
      6,           0., 0.0500000007
      7, 0.0950106457, 0.0409026816
      8, 0.0904788002, 0.0386797525
      9, 0.0868202597,  0.035202127
     10, 0.0843705609, 0.0307887513
     11, 0.0833543763, 0.0258438922
     12, 0.0828009695, 0.0208223686
     13, 0.0808104873, 0.0161837284
     14, 0.0775226876, 0.0123537015
     15, 0.0732395872, 0.00968383905
     16, 0.0683524236, 0.00841844734
     17, 0.0633116737, 0.00867423229
     18, 0.0585782416, 0.0104273921
     19, 0.0545867309, 0.0135171441
     20, 0.0517032146, 0.0176601093
** ... 238 like lines cut
**
*ELEMENT, TYPE=DS3 , ELSET=MATERIAL1_PROPERTIES
  1,  63,   1,   7
  2, 112,   7,   8
  3, 132, 131, 112
  4, 115, 112,   9
  5, 125, 115,  10
  6, 129,  12, 118
  7, 161, 148, 118
  8, 135,  59, 134
  9, 142,  99,  98
 10, 100,  15,  92
 11, 100,  52,  53
 12, 101,  17,  93
 13,  94,  93,  18
 14, 110,  94,  18
 15, 143, 107, 106
 16,  96,  46,  47
 17, 127, 113,  20
 18,  97,  44,  45
 19, 122, 117,  23
 20, 128, 123,  31
** ... 434 like lines cut
**
** Material1_Properties
**
*SHELL SECTION, ELSET=MATERIAL1_PROPERTIES, MATERIAL=MATERIAL1
       0.001,       5
**
** Material1
** Date: 25-Oct-12           Time: 18:13:37
**
*MATERIAL, NAME=MATERIAL1
**
*DENSITY
       7860.,
**
*CONDUCTIVITY, TYPE=ISO
         0.6,
**
*SPECIFIC HEAT
        450.,
**
** Step  1, Default Heat Transfer Step
** LoadCase, Default
**
*STEP, AMPLITUDE=RAMP, INC=10
Steady State Heat Transfer
**
This load case is the default load case that always appears
*HEAT TRANSFER, STEADY STATE
         0.1,          1.
**
*NSET, NSET=TOP_EDGE
 5,  6, 65, 66, 67, 68, 69, 70, 71, 72, 73, 74, 75, 76, 77, 78
 79, 80, 81, 82, 83
*NSET, NSET=INLET
2
*ELSET, ELSET=BOTTOM_EDGE_S2
 11, 16, 18, 35, 37, 38, 40, 41, 42, 43, 47, 53, 61, 69, 83, 85
 87, 88, 90  
*ELSET, ELSET=BOTTOM_EDGE_S3
34
*ELSET, ELSET=HEATSOURCE1, GENERATE
       1,     454,       1
*ELSET, ELSET=REGION1, GENERATE
228,  454,    1
*ELSET, ELSET=REGION2, GENERATE
1,  227,    1
**
** Top_Temperature
**
*BOUNDARY, OP=NEW
TOP_EDGE, 11, 11, 	  20.
**
** Inlet
**
*BOUNDARY, OP=NEW
INLET, 11, 11, 	  20.
** HeatFlux_bottom
**
*DFLUX, OP=NEW
BOTTOM_EDGE_S2, S2,   2000.
**
*DFLUX, OP=NEW
BOTTOM_EDGE_S3, S3,   2000.
**
** HeatSource1
**
*DFLUX, OP=NEW
HEATSOURCE1, BF,         0.
**
*FILM, OP=NEW
*CFLUX, OP=NEW
**
*NODE PRINT, FREQ=1
NT,
**
*EL PRINT, POS=INTEG, FREQ=0
**
*EL PRINT, POS=NODES, FREQ=0
**
*EL PRINT, POS=CENTR, FREQ=0
**
*EL PRINT, POS=AVERAGE, FREQ=0
**
*MODAL PRINT, FREQ=99999
**
*PRINT, FREQ=1
** NODE OUTPUT REQUESTS
**
*OUTPUT, FIELD, FREQ=1
*NODE OUTPUT
NT,
**
** ELEMENT OUTPUT REQUESTS
** NONE
** MODAL OUTPUT REQUESTS
** NONE
**
*END STEP
