*HEADING
ABAQUS job created on 25-Oct-12 at 19:21:26
** seed size = 0.0055
*#node, 233
*#element, 410
**
*NODE
   1,  0.100000001, 0.0199999996
      2,           0., 0.0299999993
      3,           0.,           0.
      4,  0.100000001,           0.
      5,  0.100000001, 0.0500000007
      6,           0., 0.0500000007
      7, 0.0996123701, 0.0204910859
      8, 0.0992215648, 0.0209797882
      9, 0.0988273397, 0.0214661341
     10, 0.0984300449,  0.021949444
     11, 0.0980292633, 0.0224299282
     12, 0.0976248533, 0.0229074601
     13, 0.0972166508, 0.0233819149
     14, 0.0968044698, 0.0238531698
     15, 0.0963880867, 0.0243210979
     16, 0.0959679782, 0.0247848015
     17, 0.0955435038, 0.0252445824
     18, 0.0951144695,  0.025700219
     19, 0.0946806595, 0.0261514634
     20, 0.0942418501, 0.0265980549
** ... 13549 like lines cut
**
*ELEMENT, TYPE=DS3 , ELSET=MATERIAL1_PROPERTIES
  1, 6170,  709, 3557
    2, 3557,  709, 3516
    3, 4650, 4441, 3781
    4, 4228, 4160,  918
    5, 6631, 6435, 6233
    6, 6358,  731, 6165
    7, 6565,  730, 6476
    8, 6815, 6696, 6654
    9, 6579, 6013, 6380
   10, 6214, 5559, 5609
   11, 5653, 5636, 5610
   12, 5668, 5653,  725
   13, 5674, 5662,  724
   14, 6227,  908, 5703
   15, 6509, 6229, 5849
   16, 5845,  720, 5842
   17, 5842, 5666, 5691
   18, 5681, 5678,  719
   19, 5648, 5626,  718
   20, 5498, 5475, 5441
** ... 26636 like lines cut
**
** Material1_Properties
**
*SHELL SECTION, ELSET=MATERIAL1_PROPERTIES, MATERIAL=MATERIAL1
       0.001,       5
**
** Material1
** Date: 25-Oct-12           Time: 18:13:37
**
*MATERIAL, NAME=MATERIAL1
**
*DENSITY
       7860.,
**
*CONDUCTIVITY, TYPE=ISO
         0.6,
**
*SPECIFIC HEAT
        450.,
**
** Step  1, Default Heat Transfer Step
** LoadCase, Default
**
*STEP, AMPLITUDE=RAMP, INC=10
Steady State Heat Transfer
**
This load case is the default load case that always appears
*HEAT TRANSFER, STEADY STATE
         0.1,          1.
**
*NSET, NSET=TOP_EDGE
   5,   6, 512, 513, 514, 515, 516, 517, 518, 519, 520, 521, 522, 523, 524, 525
 526, 527, 528, 529, 530, 531, 532, 533, 534, 535, 536, 537, 538, 539, 540, 541
 542, 543, 544, 545, 546, 547, 548, 549, 550, 551, 552, 553, 554, 555, 556, 557
 558, 559, 560, 561, 562, 563, 564, 565, 566, 567, 568, 569, 570, 571, 572, 573
 574, 575, 576, 577, 578, 579, 580, 581, 582, 583, 584, 585, 586, 587, 588, 589
 590, 591, 592, 593, 594, 595, 596, 597, 598, 599, 600, 601, 602, 603, 604, 605
 606, 607, 608, 609, 610, 611, 612, 613, 614, 615, 616, 617, 618, 619, 620, 621
 622, 623, 624, 625, 626, 627, 628, 629, 630, 631, 632, 633, 634, 635, 636, 637
 638, 639, 640, 641, 642, 643, 644, 645, 646, 647, 648, 649, 650, 651, 652, 653
 654, 655, 656, 657, 658, 659, 660, 661, 662, 663, 664, 665, 666, 667, 668, 669
 670
*NSET, NSET=INLET
2
*ELSET, ELSET=BOTTOM_EDGE_S1
3066
*ELSET, ELSET=BOTTOM_EDGE_S2
   45,   91,  468,  508,  527,  568,  720,  722,  755,  757,  783,  789,  793,  812,  814,  815
  882,  884,  904,  907,  912,  943,  959, 1023, 1046, 1050, 1368, 2311, 2342, 2611, 2624, 2714
 2798, 2806, 2834, 2835, 3034, 3068, 3069, 3070, 3072, 3073, 3074, 3078, 3082, 3083, 3084, 3086
 3087, 3088, 3093, 3095, 3097, 3098, 3099, 3102, 3103, 3107, 3109, 3111, 3112, 3113, 3116, 3117
 3121, 3122, 3123, 3125, 3126, 3127, 3131, 3135, 3136, 3137, 3139, 3140, 3141, 3146, 3148, 3150
 3151, 3152, 3155, 3156, 3160, 3162, 3164, 3165, 3166, 3169, 3170, 3298, 3299, 3304, 3316, 3318
 3330, 3334, 3336, 3337, 3339, 3347, 3349, 3352, 3354, 3356, 3358, 3362, 3363, 3366, 3369, 3373
 3377, 3378, 3382, 3384, 3386, 3388, 3390, 3414, 3416, 3418, 3419, 3422, 3423, 3426, 3427, 3430
 3431, 3434, 3436, 3438, 3440, 3502, 3510, 3512, 3530, 3540, 3552, 3554, 3560, 3562, 3568, 3580
 3582, 3588, 3590, 3608, 3616, 3618, 3636, 3646, 3658, 3660, 3666, 3668, 3674, 3686, 3688
*ELSET, ELSET=HEATSOURCE1, GENERATE
       1,     26656,       1
*ELSET, ELSET=REGION1, GENERATE
   13317,  26656,      1
*ELSET, ELSET=REGION2, GENERATE
     1,  13316,      1
**
** Top_Temperature
**
*BOUNDARY, OP=NEW
TOP_EDGE, 11, 11, 	  20.
**
** Inlet_Temperature
**
*BOUNDARY, OP=NEW
INLET, 11, 11, 	  20.
**
** HeatFlux_bottom
**
*DFLUX, OP=NEW
BOTTOM_EDGE_S1, S1,   2000.
**
*DFLUX, OP=NEW
BOTTOM_EDGE_S2, S2,   2000.
**
** HeatSource1
**
*DFLUX, OP=NEW
HEATSOURCE1, BF,         0.
**
*FILM, OP=NEW
*CFLUX, OP=NEW
**
*NODE PRINT, FREQ=1
NT,
**
*EL PRINT, POS=INTEG, FREQ=0
**
*EL PRINT, POS=NODES, FREQ=0
**
*EL PRINT, POS=CENTR, FREQ=0
**
*EL PRINT, POS=AVERAGE, FREQ=0
**
*MODAL PRINT, FREQ=99999
**
*PRINT, FREQ=1
** NODE OUTPUT REQUESTS
**
*OUTPUT, FIELD, FREQ=1
*NODE OUTPUT
NT,
**
** ELEMENT OUTPUT REQUESTS
** NONE
** MODAL OUTPUT REQUESTS
** NONE
**
*END STEP
