*HEADING
ABAQUS job created on 25-Oct-12 at 19:21:26
** seed size = 0.0055
*#node, 233
*#element, 410
**
*NODE
  1,  0.100000001, 0.0199999996
      2,           0., 0.0299999993
      3,           0.,           0.
      4,  0.100000001,           0.
      5,  0.100000001, 0.0500000007
      6,           0., 0.0500000007
      7, 0.0991033539, 0.0223162249
      8, 0.0981798917, 0.0246215016
      9, 0.0972260013, 0.0269141961
     10, 0.0962371081, 0.0291922968
     11, 0.0952079743, 0.0314520039
     12, 0.0941312313, 0.0336895622
     13, 0.0929978415, 0.0358981676
     14, 0.0917949975, 0.0380690023
     15, 0.0905042738, 0.0401887111
     16, 0.0890985951, 0.0422342047
     17,  0.087535806, 0.0441624708
     18, 0.0857482105, 0.0458822362
     19, 0.0836367384, 0.0471728221
     20, 0.0812067091, 0.0475273542
** ... 985 like lines cut
**
*ELEMENT, TYPE=DS3 , ELSET=MATERIAL1_PROPERTIES
 1, 215,  21,  22
  2, 235,  20,  21
  3, 235,  21, 215
  4, 220,  23,  24
  5, 217, 215,  22
  6, 253,  17,  18
  7, 326, 324, 227
  8, 322, 321, 217
  9, 224,  26,  27
 10, 545, 494, 543
 11, 229,  29, 225
 12, 435, 347, 432
 13, 251,  33, 247
 14, 247,  34, 241
 15, 364,  36,  37
 16, 373, 302, 156
 17, 362,  38, 237
 18, 238, 237,  39
 19, 288, 238, 236
 20, 135,  41,  42
** ... 1868 like lines cut
**
** Material1_Properties
**
*SHELL SECTION, ELSET=MATERIAL1_PROPERTIES, MATERIAL=MATERIAL1
       0.001,       5
**
** Material1
** Date: 25-Oct-12           Time: 18:13:37
**
*MATERIAL, NAME=MATERIAL1
**
*DENSITY
       7860.,
**
*CONDUCTIVITY, TYPE=ISO
         0.6,
**
*SPECIFIC HEAT
        450.,
**
** Step  1, Default Heat Transfer Step
** LoadCase, Default
**
*STEP, AMPLITUDE=RAMP, INC=10
Steady State Heat Transfer
**
This load case is the default load case that always appears
*HEAT TRANSFER, STEADY STATE
         0.1,          1.
**
*NSET, NSET=TOP_EDGE
   5,   6, 168, 169, 170, 171, 172, 173, 174, 175, 176, 177, 178, 179, 180, 181
 182, 183, 184, 185, 186, 187, 188, 189, 190, 191, 192, 193, 194, 195, 196, 197
 198, 199, 200, 201, 202, 203, 204, 205, 206
*NSET, NSET=INLET
2
*ELSET, ELSET=BOTTOM_EDGE_S1
 107, 122, 123, 139, 140
*ELSET, ELSET=BOTTOM_EDGE_S2
  25,  96, 112, 115, 121, 129, 130, 138, 141, 157, 167, 199, 202, 276, 289, 292
 298, 301, 306, 307, 310, 312, 314, 316, 319, 325, 328, 461, 463, 466, 468, 469
 488, 493, 523
*ELSET, ELSET=HEATSOURCE1, GENERATE
       1,     1888,       1
*ELSET, ELSET=REGION1, GENERATE
   947,  1888,     1
*ELSET, ELSET=REGION2, GENERATE
   1,  946,    1
**
** Top_Temperature
**
*BOUNDARY, OP=NEW
TOP_EDGE, 11, 11, 	  20.
**
** Inlet
**
*BOUNDARY, OP=NEW
INLET, 11, 11, 	  20.
** HeatFlux_bottom
**
*DFLUX, OP=NEW
BOTTOM_EDGE_S1, S1,   2000.
**
*DFLUX, OP=NEW
BOTTOM_EDGE_S2, S2,   2000.
**
*DFLUX, OP=NEW
BOTTOM_EDGE_S3, S3,   2000.
**
** HeatSource1
**
*DFLUX, OP=NEW
HEATSOURCE1, BF,         0.
**
*FILM, OP=NEW
*CFLUX, OP=NEW
**
*NODE PRINT, FREQ=1
NT,
**
*EL PRINT, POS=INTEG, FREQ=0
**
*EL PRINT, POS=NODES, FREQ=0
**
*EL PRINT, POS=CENTR, FREQ=0
**
*EL PRINT, POS=AVERAGE, FREQ=0
**
*MODAL PRINT, FREQ=99999
**
*PRINT, FREQ=1
** NODE OUTPUT REQUESTS
**
*OUTPUT, FIELD, FREQ=1
*NODE OUTPUT
NT,
**
** ELEMENT OUTPUT REQUESTS
** NONE
** MODAL OUTPUT REQUESTS
** NONE
**
*END STEP
