*HEADING
ABAQUS job created on 25-Oct-12 at 19:21:26
** seed size = 0.0055
*#node, 233
*#element, 410
**
*NODE
   1,  0.100000001, 0.0416669995
      2,           0., 0.00833300035
      3,           0.,           0.
      4,  0.100000001,           0.
      5,  0.100000001, 0.0500000007
      6,           0., 0.0500000007
      7,  0.099374786, 0.0416552685
      8,  0.098750636, 0.0416201092
      9, 0.0981282741, 0.0415615663
     10, 0.0975084603, 0.0414797179
     11, 0.0968920216, 0.0413746573
     12, 0.0962798148,  0.041246511
     13, 0.0956727192, 0.0410954505
     14, 0.0950716212, 0.0409216844
     15, 0.0944774076,  0.040725451
     16, 0.0938909426, 0.0405070409
     17, 0.0933122188, 0.0402663834
     18,  0.092743814, 0.0400045551
     19, 0.0921856388, 0.0397215709
     20, 0.0916384757, 0.0394178331
** ... 13511 like lines cut
**
*ELEMENT, TYPE=DS3 , ELSET=MATERIAL1_PROPERTIES
 1, 2344,    7,    8
    2, 2814, 2583,  743
    3, 3786, 3608,  742
    4, 2686, 2509, 2659
    5, 2794, 2659,  740
    6, 3386, 3164, 3154
    7, 4042, 3482,  752
    8, 4464,  769, 4318
    9, 5253, 5185,  779
   10, 5005, 4765, 4659
   11, 5215, 4880, 4765
   12, 5088, 4668, 4778
   13, 5013, 4531, 4777
   14, 4771, 4665, 4525
   15, 5012, 4665,  833
   16, 5561, 5497,  857
   17, 5470, 5223, 5301
   18, 5300, 5293, 5048
   19, 5424, 5420, 5214
   20, 5284, 5180, 4994
** ... 26560 like lines cut
**
** Material1_Properties
**
*SHELL SECTION, ELSET=MATERIAL1_PROPERTIES, MATERIAL=MATERIAL1
       0.001,       5
**
** Material1
** Date: 25-Oct-12           Time: 18:13:37
**
*MATERIAL, NAME=MATERIAL1
**
*DENSITY
       7860.,
**
*CONDUCTIVITY, TYPE=ISO
         0.6,
**
*SPECIFIC HEAT
        450.,
**
** Step  1, Default Heat Transfer Step
** LoadCase, Default
**
*STEP, AMPLITUDE=RAMP, INC=10
Steady State Heat Transfer
**
This load case is the default load case that always appears
*HEAT TRANSFER, STEADY STATE
         0.1,          1.
**
*NSET, NSET=TOP_EDGE
 5,   6, 506, 507, 508, 509, 510, 511, 512, 513, 514, 515, 516, 517, 518, 519
 520, 521, 522, 523, 524, 525, 526, 527, 528, 529, 530, 531, 532, 533, 534, 535
 536, 537, 538, 539, 540, 541, 542, 543, 544, 545, 546, 547, 548, 549, 550, 551
 552, 553, 554, 555, 556, 557, 558, 559, 560, 561, 562, 563, 564, 565, 566, 567
 568, 569, 570, 571, 572, 573, 574, 575, 576, 577, 578, 579, 580, 581, 582, 583
 584, 585, 586, 587, 588, 589, 590, 591, 592, 593, 594, 595, 596, 597, 598, 599
 600, 601, 602, 603, 604, 605, 606, 607, 608, 609, 610, 611, 612, 613, 614, 615
 616, 617, 618, 619, 620, 621, 622, 623, 624, 625, 626, 627, 628, 629, 630, 631
 632, 633, 634, 635, 636, 637, 638, 639, 640, 641, 642, 643, 644, 645, 646, 647
 648, 649, 650, 651, 652, 653, 654, 655, 656, 657, 658, 659, 660, 661, 662, 663
 664
*NSET, NSET=INLET
2
*ELSET, ELSET=BOTTOM_EDGE_S1
 3084
*ELSET, ELSET=BOTTOM_EDGE_S2
   37,  108,  131,  374,  393,  427,  469,  471,  680,  683,  704,  927,  966,  987, 1081, 1235
 1237, 1249, 1251, 1252, 1264, 1275, 1277, 1747, 2779, 2791, 2941, 2950, 3076, 3086, 3087, 3088
 3090, 3091, 3092, 3096, 3100, 3101, 3102, 3104, 3105, 3106, 3111, 3113, 3115, 3116, 3117, 3120
 3121, 3125, 3127, 3129, 3130, 3131, 3134, 3135, 3139, 3140, 3141, 3143, 3144, 3145, 3149, 3153
 3154, 3155, 3157, 3158, 3159, 3164, 3166, 3168, 3169, 3170, 3173, 3174, 3178, 3180, 3182, 3183
 3184, 3187, 3188, 3387, 3388, 3391, 3393, 3395, 3396, 3398, 3400, 3401, 3407, 3415, 3416, 3419
 3425, 3427, 3428, 3430, 3432, 3433, 3434, 3435, 3437, 3438, 3441, 3443, 3445, 3447, 3449, 3451
 3452, 3455, 3457, 3458, 3461, 3463, 3464, 3469, 3470, 3472, 3475, 3476, 3477, 3479, 3483, 3485
 3486, 3487, 3488, 3492, 3507, 3515, 3517, 3535, 3545, 3557, 3559, 3565, 3567, 3573, 3585, 3587
 3593, 3595, 3613, 3621, 3623, 3641, 3651, 3663, 3665, 3671, 3673, 3679, 3691, 3693, 3699
*ELSET, ELSET=HEATSOURCE1, GENERATE
       1,     26580,       1
*ELSET, ELSET=REGION1, GENERATE
 13294,  26580,      1
*ELSET, ELSET=REGION2, GENERATE
     1,  13293,      1
**
** Top_Temperature
**
*BOUNDARY, OP=NEW
TOP_EDGE, 11, 11, 	  20.
**
** Inlet
**
*BOUNDARY, OP=NEW
INLET, 11, 11, 	  20.
** HeatFlux_bottom
**
*DFLUX, OP=NEW
BOTTOM_EDGE_S1, S1,   2000.
**
*DFLUX, OP=NEW
BOTTOM_EDGE_S2, S2,   2000.
**
*DFLUX, OP=NEW
BOTTOM_EDGE_S3, S3,   2000.
**
** HeatSource1
**
*DFLUX, OP=NEW
HEATSOURCE1, BF,         0.
**
*FILM, OP=NEW
*CFLUX, OP=NEW
**
*NODE PRINT, FREQ=1
NT,
**
*EL PRINT, POS=INTEG, FREQ=0
**
*EL PRINT, POS=NODES, FREQ=0
**
*EL PRINT, POS=CENTR, FREQ=0
**
*EL PRINT, POS=AVERAGE, FREQ=0
**
*MODAL PRINT, FREQ=99999
**
*PRINT, FREQ=1
** NODE OUTPUT REQUESTS
**
*OUTPUT, FIELD, FREQ=1
*NODE OUTPUT
NT,
**
** ELEMENT OUTPUT REQUESTS
** NONE
** MODAL OUTPUT REQUESTS
** NONE
**
*END STEP
