*HEADING
ABAQUS job created on 25-Oct-12 at 19:21:26
** seed size = 0.0055
*#node, 233
*#element, 410
**
*NODE
  1,  0.100000001, 0.0416669995
      2,           0., 0.00833300035
      3,           0.,           0.
      4,  0.100000001,           0.
      5,  0.100000001, 0.0500000007
      6,           0., 0.0500000007
      7, 0.0907403827, 0.0388581529
      8, 0.0846017376, 0.0313782692
      9, 0.0830128863, 0.0217490364
     10, 0.0784518719, 0.0132148806
     11, 0.0699179024, 0.00865315646
     12, 0.0602883436, 0.00960189477
     13,  0.052808661, 0.0157406628
     14, 0.0500000007, 0.0250000004
     15, 0.0471911542, 0.0342596136
     16, 0.0397112705, 0.0403982662
     17, 0.0300820451, 0.0413468331
     18, 0.0215485897, 0.0367855802
     19,  0.016987199, 0.0282514002
     20, 0.0153982993, 0.0186218116
** ... 50 like lines cut
**
*ELEMENT, TYPE=DS3 , ELSET=MATERIAL1_PROPERTIES
 1, 33,  1,  7
 2, 51,  7,  8
 3, 51, 32, 33
 4, 50, 31, 32
 5, 50, 10, 57
 6, 57, 10, 11
 7, 27, 11, 12
 8, 53, 12, 13
 9, 22, 21,  2
10, 46, 13, 14
11, 54, 25, 53
12, 56, 55, 52
13, 48, 16, 47
14, 47, 16, 17
15, 55, 47, 52
16, 52, 47, 19
17, 49, 21, 22
18, 22,  2,  3
19, 31, 30,  4
20, 29, 30, 57
** ... 88 like lines cut
**
** Material1_Properties
**
*SHELL SECTION, ELSET=MATERIAL1_PROPERTIES, MATERIAL=MATERIAL1
       0.001,       5
**
** Material1
** Date: 25-Oct-12           Time: 18:13:37
**
*MATERIAL, NAME=MATERIAL1
**
*DENSITY
       7860.,
**
*CONDUCTIVITY, TYPE=ISO
         0.6,
**
*SPECIFIC HEAT
        450.,
**
** Step  1, Default Heat Transfer Step
** LoadCase, Default
**
*STEP, AMPLITUDE=RAMP, INC=10
Steady State Heat Transfer
**
This load case is the default load case that always appears
*HEAT TRANSFER, STEADY STATE
         0.1,          1.
**
*NSET, NSET=TOP_EDGE
   5,  6, 34, 35, 36, 37, 38, 39, 40, 41, 42
*NSET, NSET=INLET
2
*ELSET, ELSET=BOTTOM_EDGE_S1, GENERATE
 20,  23,   1
*ELSET, ELSET=BOTTOM_EDGE_S2
  19, 26, 27, 44, 46
*ELSET, ELSET=BOTTOM_EDGE_S3
18
*ELSET, ELSET=HEATSOURCE1, GENERATE
       1,     108,       1
*ELSET, ELSET=REGION1, GENERATE
   54,  108,    1
*ELSET, ELSET=REGION2, GENERATE
  1,  53,   1
**
** Top_Temperature
**
*BOUNDARY, OP=NEW
TOP_EDGE, 11, 11, 	  20.
**
** Inlet
**
*BOUNDARY, OP=NEW
INLET, 11, 11, 	  20.
** HeatFlux_bottom
**
*DFLUX, OP=NEW
BOTTOM_EDGE_S1, S1,   2000.
**
*DFLUX, OP=NEW
BOTTOM_EDGE_S2, S2,   2000.
**
*DFLUX, OP=NEW
BOTTOM_EDGE_S3, S3,   2000.
**
** HeatSource1
**
*DFLUX, OP=NEW
HEATSOURCE1, BF,         0.
**
*FILM, OP=NEW
*CFLUX, OP=NEW
**
*NODE PRINT, FREQ=1
NT,
**
*EL PRINT, POS=INTEG, FREQ=0
**
*EL PRINT, POS=NODES, FREQ=0
**
*EL PRINT, POS=CENTR, FREQ=0
**
*EL PRINT, POS=AVERAGE, FREQ=0
**
*MODAL PRINT, FREQ=99999
**
*PRINT, FREQ=1
** NODE OUTPUT REQUESTS
**
*OUTPUT, FIELD, FREQ=1
*NODE OUTPUT
NT,
**
** ELEMENT OUTPUT REQUESTS
** NONE
** MODAL OUTPUT REQUESTS
** NONE
**
*END STEP
