*HEADING
ABAQUS job created on 25-Oct-12 at 19:21:26
** seed size = 0.0055
*#node, 233
*#element, 410
**
*NODE
   1,  0.100000001, 0.0199999996
      2,           0., 0.0299999993
      3,           0.,           0.
      4,  0.100000001,           0.
      5,  0.100000001, 0.0500000007
      6,           0., 0.0500000007
      7,  0.098109208, 0.0247945245
      8, 0.0960846022, 0.0295344349
      9, 0.0938797072, 0.0341929346
     10, 0.0914145783, 0.0387168825
     11, 0.0885285661, 0.0429811776
     12, 0.0848361403,  0.046543438
     13, 0.0814559832, 0.0475520678
     14, 0.0785171315, 0.0462578014
     15, 0.0756832883, 0.0426042788
     16, 0.0737379193, 0.0383869782
     17, 0.0722444877, 0.0339868143
     18, 0.0710254535, 0.0295018218
     19, 0.0699935853, 0.0249695312
     20,  0.068849355, 0.0198488776
** ... 247 like lines cut
**
*ELEMENT, TYPE=DS3 , ELSET=MATERIAL1_PROPERTIES
   1, 111,  13,  14
  2, 111,  14,  15
  3, 113, 111,  15
  4, 111,  11,  12
  5, 115, 113,  16
  6, 185, 136,  11
  7, 141, 137, 136
  8, 117, 115,  17
  9, 143, 142, 117
 10, 149, 141, 142
 11, 182, 179, 180
 12, 175, 154, 157
 13, 132,  75,  76
 14, 152,  78, 122
 15, 144, 133, 123
 16,  73,  23,  24
 17,  72,  24,  25
 18,  71,  26,  27
 19,  64,  48,  49
 20, 124,  70,  71
** ... 452 like lines cut
**
** Material1_Properties
**
*SHELL SECTION, ELSET=MATERIAL1_PROPERTIES, MATERIAL=MATERIAL1
       0.001,       5
**
** Material1
** Date: 25-Oct-12           Time: 18:13:37
**
*MATERIAL, NAME=MATERIAL1
**
*DENSITY
       7860.,
**
*CONDUCTIVITY, TYPE=ISO
         0.6,
**
*SPECIFIC HEAT
        450.,
**
** Step  1, Default Heat Transfer Step
** LoadCase, Default
**
*STEP, AMPLITUDE=RAMP, INC=10
Steady State Heat Transfer
**
This load case is the default load case that always appears
*HEAT TRANSFER, STEADY STATE
         0.1,          1.
**
*NSET, NSET=TOP_EDGE
    5,   6,  88,  89,  90,  91,  92,  93,  94,  95,  96,  97,  98,  99, 100, 101
 102, 103, 104, 105, 106
*NSET, NSET=INLET
2
*ELSET, ELSET=BOTTOM_EDGE_S1
 64, 65, 72, 74
*ELSET, ELSET=BOTTOM_EDGE_S2
 13,  20,  21,  43,  58,  60,  62,  63,  69,  71,  73, 100, 103, 112, 122
*ELSET, ELSET=BOTTOM_EDGE_S3
52
*ELSET, ELSET=HEATSOURCE1, GENERATE
       1,    472,       1
*ELSET, ELSET=REGION1, GENERATE
 237,  472,    1
*ELSET, ELSET=REGION2, GENERATE
   1,  236,    1
**
** Top_Temperature
**
*BOUNDARY, OP=NEW
TOP_EDGE, 11, 11, 	  20.
**
** Inlet
**
*BOUNDARY, OP=NEW
INLET, 11, 11, 	  20.
** HeatFlux_bottom
**
*DFLUX, OP=NEW
BOTTOM_EDGE_S1, S1,   2000.
**
*DFLUX, OP=NEW
BOTTOM_EDGE_S2, S2,   2000.
**
*DFLUX, OP=NEW
BOTTOM_EDGE_S3, S3,   2000.
**
** HeatSource1
**
*DFLUX, OP=NEW
HEATSOURCE1, BF,         0.
**
*FILM, OP=NEW
*CFLUX, OP=NEW
**
*NODE PRINT, FREQ=1
NT,
**
*EL PRINT, POS=INTEG, FREQ=0
**
*EL PRINT, POS=NODES, FREQ=0
**
*EL PRINT, POS=CENTR, FREQ=0
**
*EL PRINT, POS=AVERAGE, FREQ=0
**
*MODAL PRINT, FREQ=99999
**
*PRINT, FREQ=1
** NODE OUTPUT REQUESTS
**
*OUTPUT, FIELD, FREQ=1
*NODE OUTPUT
NT,
**
** ELEMENT OUTPUT REQUESTS
** NONE
** MODAL OUTPUT REQUESTS
** NONE
**
*END STEP
