*HEADING
ABAQUS job created on 25-Oct-12 at 19:21:26
** seed size = 0.0055
*#node, 233
*#element, 410
**
*NODE
   1, 0.00899999961,           0.
      2, 0.0909999982,           0.
      3,  0.100000001,           0.
      4,  0.100000001, 0.0500000007
      5,           0., 0.0500000007
      6,           0.,           0.
      7, 0.00907480251, 0.0024755185
      8, 0.00929893646, 0.0049420041
      9, 0.00967158377, 0.00739045674
     10, 0.0101913856, 0.00981194247
     11,  0.010856444, 0.0121976249
     12, 0.0116643338, 0.0145388003
     13, 0.0126121063, 0.0168269258
     14, 0.0136963027, 0.0190536492
     15, 0.0149129676, 0.0212108511
     16, 0.0162576623, 0.0232906546
     17,  0.017725477, 0.0252854731
     18, 0.0193110593, 0.0271880291
     19, 0.0210086219, 0.0289913788
     20, 0.0228119716, 0.0306889415
** ... 985 like lines cut
**
*ELEMENT, TYPE=DS3 , ELSET=MATERIAL1_PROPERTIES
 1, 295, 294, 222
  2, 278, 135, 277
  3, 282, 131, 281
  4, 287, 126, 286
  5, 367, 240, 297
  6, 245, 111, 244
  7, 249, 107, 248
  8, 253, 103, 252
  9, 256, 100, 255
 10, 181, 180,  33
 11, 261,  95, 260
 12, 264,  92, 263
 13, 269,  87, 268
 14, 368, 225, 298
 15, 230,  72, 229
 16, 234,  68, 233
 17, 188, 187,  52
 18, 239,  63, 238
 19, 189,  13, 174
 20,  57,   2,  58
** ... 1867 like lines cut
**
** Material1_Properties
**
*SHELL SECTION, ELSET=MATERIAL1_PROPERTIES, MATERIAL=MATERIAL1
       0.001,       5
**
** Material1
** Date: 25-Oct-12           Time: 18:13:37
**
*MATERIAL, NAME=MATERIAL1
**
*DENSITY
       7860.,
**
*CONDUCTIVITY, TYPE=ISO
         1.0,
**
*SPECIFIC HEAT
        450.,
**
** Step  1, Default Heat Transfer Step
** LoadCase, Default
**
*STEP, AMPLITUDE=RAMP, INC=10
Steady State Heat Transfer
**
This load case is the default load case that always appears
*HEAT TRANSFER, STEADY STATE
         0.1,          1.
**
*NSET, NSET=OUT_BOUND
  4,   5,  80,  81,  82,  83,  84,  85,  86,  87,  88,  89,  90,  91,  92,  93
  94,  95,  96,  97,  98,  99, 100, 101, 102, 103, 104, 105, 106, 107, 108, 109
 110, 111, 112, 113, 114, 115, 116, 117, 118
    1,   2,   3,   6,  58,  59,  60, 138, 139, 140, 141, 142, 143, 144, 145, 146
 147, 148, 149, 150, 151, 152, 153, 154, 155, 156, 157, 158, 159, 160, 161, 162
 163, 164, 165, 166, 167, 168, 169, 170, 171, 172
   5,   6, 119, 120, 121, 122, 123, 124, 125, 126, 127, 128, 129, 130, 131, 132
 133, 134, 135, 136, 137
  3,  4, 61, 62, 63, 64, 65, 66, 67, 68, 69, 70, 71, 72, 73, 74
 75, 76, 77, 78, 79
*ELSET, ELSET=HEATSOURCE1, GENERATE
       1,     1887,       1
*ELSET, ELSET=REGION1, GENERATE
    849,  1887,     1
*ELSET, ELSET=REGION2, GENERATE
  1,  848,    1
**
** Top_Temperature
**
*BOUNDARY, OP=NEW
OUT_BOUND, 11, 11, 	  20.
**
** HeatSource1
**
*DFLUX, OP=NEW
HEATSOURCE1, BF,         0.
**
*FILM, OP=NEW
*CFLUX, OP=NEW
**
*NODE PRINT, FREQ=1
NT,
**
*EL PRINT, POS=INTEG, FREQ=0
**
*EL PRINT, POS=NODES, FREQ=0
**
*EL PRINT, POS=CENTR, FREQ=0
**
*EL PRINT, POS=AVERAGE, FREQ=0
**
*MODAL PRINT, FREQ=99999
**
*PRINT, FREQ=1
** NODE OUTPUT REQUESTS
**
*OUTPUT, FIELD, FREQ=1
*NODE OUTPUT
NT,
**
** ELEMENT OUTPUT REQUESTS
** NONE
** MODAL OUTPUT REQUESTS
** NONE
**
*END STEP
