*HEADING
ABAQUS job created on 25-Oct-12 at 19:21:26
** seed size = 0.0055
*#node, 233
*#element, 410
**
*NODE
  1, 0.0299999993,           0.
      2, 0.0700000003,           0.
      3,  0.100000001,           0.
      4,  0.100000001, 0.0500000007
      5,           0., 0.0500000007
      6,           0.,           0.
      7, 0.0326794907, 0.00999999978
      8, 0.0399999991, 0.0173205081
      9, 0.0500000007, 0.0199999996
     10, 0.0599999987, 0.0173205081
     11, 0.0673205107, 0.00999999978
     12, 0.0799999982,           0.
     13, 0.0900000036,           0.
     14,  0.100000001, 0.00999999978
     15,  0.100000001, 0.0199999996
     16,  0.100000001, 0.0299999993
     17,  0.100000001, 0.0399999991
     18, 0.0900000036, 0.0500000007
     19, 0.0799999982, 0.0500000007
     20, 0.0700000003, 0.0500000007
** ... 52 like lines cut
**
*ELEMENT, TYPE=DS3 , ELSET=MATERIAL1_PROPERTIES
 1, 61, 54, 53
  2, 62, 46, 45
  3, 65, 47, 46
  4, 50, 20, 49
  5, 68, 64, 59
  6, 38, 37, 11
  7, 38,  2, 12
  8, 66, 48, 63
  9, 52, 29, 51
 10, 55,  3, 14
 11, 41, 38, 12
 12, 18, 17,  4
 13, 42, 17, 18
 14, 43, 16, 42
 15, 68, 58, 37
 16, 57,  5, 27
 17, 57, 26,  5
 18, 60, 45, 44
 19, 45, 25, 44
 20, 47, 23, 46
** ... 92 like lines cut
**
** Material1_Properties
**
*SHELL SECTION, ELSET=MATERIAL1_PROPERTIES, MATERIAL=MATERIAL1
       0.001,       5
**
** Material1
** Date: 25-Oct-12           Time: 18:13:37
**
*MATERIAL, NAME=MATERIAL1
**
*DENSITY
       7860.,
**
*CONDUCTIVITY, TYPE=ISO
         1.0,
**
*SPECIFIC HEAT
        450.,
**
** Step  1, Default Heat Transfer Step
** LoadCase, Default
**
*STEP, AMPLITUDE=RAMP, INC=10
Steady State Heat Transfer
**
This load case is the default load case that always appears
*HEAT TRANSFER, STEADY STATE
         0.1,          1.
**
*NSET, NSET=OUT_BOUND
      1,  2,  3,  4,  5,  6, 12, 13, 14, 15, 16, 17, 18, 19, 20, 21
 22, 23, 24, 25, 26, 27, 28, 29, 30, 31, 32, 33, 34, 35
*ELSET, ELSET=HEATSOURCE1, GENERATE
       1,     112,       1
*ELSET, ELSET=REGION1, GENERATE
   1,  100,    1
*ELSET, ELSET=REGION2, GENERATE
  101,  112,    1
**
** Top_Temperature
**
*BOUNDARY, OP=NEW
OUT_BOUND, 11, 11, 	  20.
**
** HeatSource1
**
*DFLUX, OP=NEW
HEATSOURCE1, BF,         0.
**
*FILM, OP=NEW
*CFLUX, OP=NEW
**
*NODE PRINT, FREQ=1
NT,
**
*EL PRINT, POS=INTEG, FREQ=0
**
*EL PRINT, POS=NODES, FREQ=0
**
*EL PRINT, POS=CENTR, FREQ=0
**
*EL PRINT, POS=AVERAGE, FREQ=0
**
*MODAL PRINT, FREQ=99999
**
*PRINT, FREQ=1
** NODE OUTPUT REQUESTS
**
*OUTPUT, FIELD, FREQ=1
*NODE OUTPUT
NT,
**
** ELEMENT OUTPUT REQUESTS
** NONE
** MODAL OUTPUT REQUESTS
** NONE
**
*END STEP
