*HEADING
ABAQUS job created on 25-Oct-12 at 19:21:26
** seed size = 0.0055
*#node, 233
*#element, 410
**
*NODE
  1, 0.0299999993,           0.
      2, 0.0700000003,           0.
      3,  0.100000001,           0.
      4,  0.100000001, 0.0500000007
      5,           0., 0.0500000007
      6,           0.,           0.
      7, 0.0305811632, 0.00478631351
      8, 0.0322908796, 0.00929446332
      9, 0.0350297838, 0.0132624535
     10, 0.0386387035, 0.0164596774
     11, 0.0429079011,  0.018700324
     12, 0.0475892648, 0.0198541768
     13,  0.052410733, 0.0198541768
     14, 0.0570920967,  0.018700324
     15, 0.0613612942, 0.0164596774
     16, 0.0649702176, 0.0132624535
     17, 0.0677091181, 0.00929446332
     18, 0.0694188327, 0.00478631351
     19,  0.075000003,           0.
     20, 0.0799999982,           0.
** ... 239 like lines cut
**
*ELEMENT, TYPE=DS3 , ELSET=MATERIAL1_PROPERTIES
 1, 192,  65,   1
  2, 111,  59, 110
  3, 225, 207, 205
  4,  96,  47,  95
  5,  75,  74,  11
  6,  76,  75,  12
  7, 103,  40, 102
  8,  78,  77,  15
  9, 106,  37, 105
 10, 185, 128, 176
 11,  86,  18,  19
 12,   2,  19,  18
 13,  80,  14,  77
 14,  81,  73,   8
 15,  82,  17,  79
 16,  83,  10,  74
 17,  23,   3,  24
 18,  92,  23,  24
 19, 139,  23,  92
 20,  85,  21,  84
** ... 436 like lines cut
**
** Material1_Properties
**
*SHELL SECTION, ELSET=MATERIAL1_PROPERTIES, MATERIAL=MATERIAL1
       0.001,       5
**
** Material1
** Date: 25-Oct-12           Time: 18:13:37
**
*MATERIAL, NAME=MATERIAL1
**
*DENSITY
       7860.,
**
*CONDUCTIVITY, TYPE=ISO
         1.0,
**
*SPECIFIC HEAT
        450.,
**
** Step  1, Default Heat Transfer Step
** LoadCase, Default
**
*STEP, AMPLITUDE=RAMP, INC=10
Steady State Heat Transfer
**
This load case is the default load case that always appears
*HEAT TRANSFER, STEADY STATE
         0.1,          1.
**
*NSET, NSET=OUT_BOUND
  1,  2,  3,  4,  5,  6, 19, 20, 21, 22, 23, 24, 25, 26, 27, 28
 29, 30, 31, 32, 33, 34, 35, 36, 37, 38, 39, 40, 41, 42, 43, 44
 45, 46, 47, 48, 49, 50, 51, 52, 53, 54, 55, 56, 57, 58, 59, 60
 61, 62, 63, 64, 65, 66, 67, 68, 69, 70, 71, 72
*ELSET, ELSET=HEATSOURCE1, GENERATE
       1,     456,       1
*ELSET, ELSET=REGION1, GENERATE
   1,  399,    1
*ELSET, ELSET=REGION2, GENERATE
400,  456,    1
**
** Top_Temperature
**
*BOUNDARY, OP=NEW
OUT_BOUND, 11, 11, 	  20.
**
** HeatSource1
**
*DFLUX, OP=NEW
HEATSOURCE1, BF,         0.
**
*FILM, OP=NEW
*CFLUX, OP=NEW
**
*NODE PRINT, FREQ=1
NT,
**
*EL PRINT, POS=INTEG, FREQ=0
**
*EL PRINT, POS=NODES, FREQ=0
**
*EL PRINT, POS=CENTR, FREQ=0
**
*EL PRINT, POS=AVERAGE, FREQ=0
**
*MODAL PRINT, FREQ=99999
**
*PRINT, FREQ=1
** NODE OUTPUT REQUESTS
**
*OUTPUT, FIELD, FREQ=1
*NODE OUTPUT
NT,
**
** ELEMENT OUTPUT REQUESTS
** NONE
** MODAL OUTPUT REQUESTS
** NONE
**
*END STEP
