*HEADING
ABAQUS job created on 25-Oct-12 at 19:21:26
**
*#node, 121
*#element, 200
**
*NODE
         1,  0.100000001, 0.0199999996
      2,           0., 0.0299999993
      3,           0.,           0.
      4,  0.100000001,           0.
      5,  0.100000001, 0.0500000007
      6,           0., 0.0500000007
      7, 0.0998524949, 0.0203714855
      8, 0.0997043177, 0.0207427219
      9, 0.0995554402, 0.0211137254
     10, 0.0994058475, 0.0214845054
     11, 0.0992555171, 0.0218550749
     12, 0.0991044268,  0.022225447
     13, 0.0989529938, 0.0225945804
     14, 0.0988005251, 0.0229640752
     15, 0.0986472964, 0.0233332627
     16, 0.0984932855, 0.0237021353
     17, 0.0983384699, 0.0240706895
     18, 0.0981828347, 0.0244389176
     19, 0.0980263576, 0.0248068161
     20, 0.0978690237, 0.0251743756
** ... 32330 like lines cut
**
*ELEMENT, TYPE=DS3 , ELSET=MATERIAL1_PROPERTIES
  1,  5468,  4700,  2116
    2,  5469,  4701,  4700
    3,  5470,  4702,  2126
    4,  5973,  5799,  2125
    5,  6896,  2123,  6895
    6,  7445,  6590,  7311
    7,  8242,  2121,  8225
    8,  7867,  6589,  7202
    9,  7310,  6103,  2129
   10,  5974,  5471,  5800
   11,  5471,  4703,  2127
   12,    81,  2127,    80
   13,  4705,    82,    83
   14,  4705,  4704,    82
   15,  5219,  2128,  4705
   16,  5818,  5472,  4743
   17,  6487,  5818,  5819
   18,  5820,  5474,  2132
   19,  5677,  5218,  4746
   20,  5051,  4746,    96
** ... 63928 like lines cut
**
** Material1_Properties
**
*SHELL SECTION, ELSET=MATERIAL1_PROPERTIES, MATERIAL=MATERIAL1
       0.001,       5
**
** Material1
** Date: 25-Oct-12           Time: 18:13:37
**
*MATERIAL, NAME=MATERIAL1
**
*DENSITY
       7860.,
**
*CONDUCTIVITY, TYPE=ISO
         1.0,
**
*SPECIFIC HEAT
        450.,
**
** Step  1, Default Heat Transfer Step
** LoadCase, Default
**
*STEP, AMPLITUDE=RAMP, INC=10
Steady State Heat Transfer
**
This load case is the default load case that always appears
*HEAT TRANSFER, STEADY STATE
         0.1,          1.
**
*NSET, NSET=INNODE
    2,
*NSET, NSET=TOP_TEMPERATURE
     5,    6, 1006, 1007, 1008, 1009, 1010, 1011, 1012, 1013, 1014, 1015, 1016, 1017, 1018, 1019
 1020, 1021, 1022, 1023, 1024, 1025, 1026, 1027, 1028, 1029, 1030, 1031, 1032, 1033, 1034, 1035
 1036, 1037, 1038, 1039, 1040, 1041, 1042, 1043, 1044, 1045, 1046, 1047, 1048, 1049, 1050, 1051
 1052, 1053, 1054, 1055, 1056, 1057, 1058, 1059, 1060, 1061, 1062, 1063, 1064, 1065, 1066, 1067
 1068, 1069, 1070, 1071, 1072, 1073, 1074, 1075, 1076, 1077, 1078, 1079, 1080, 1081, 1082, 1083
 1084, 1085, 1086, 1087, 1088, 1089, 1090, 1091, 1092, 1093, 1094, 1095, 1096, 1097, 1098, 1099
 1100, 1101, 1102, 1103, 1104, 1105, 1106, 1107, 1108, 1109, 1110, 1111, 1112, 1113, 1114, 1115
 1116, 1117, 1118, 1119, 1120, 1121, 1122, 1123, 1124, 1125, 1126, 1127, 1128, 1129, 1130, 1131
 1132, 1133, 1134, 1135, 1136, 1137, 1138, 1139, 1140, 1141, 1142, 1143, 1144, 1145, 1146, 1147
 1148, 1149, 1150, 1151, 1152, 1153, 1154, 1155, 1156, 1157, 1158, 1159, 1160, 1161, 1162, 1163
 1164, 1165, 1166, 1167, 1168, 1169, 1170, 1171, 1172, 1173, 1174, 1175, 1176, 1177, 1178, 1179
 1180, 1181, 1182, 1183, 1184, 1185, 1186, 1187, 1188, 1189, 1190, 1191, 1192, 1193, 1194, 1195
 1196, 1197, 1198, 1199, 1200, 1201, 1202, 1203, 1204, 1205, 1206, 1207, 1208, 1209, 1210, 1211
 1212, 1213, 1214, 1215, 1216, 1217, 1218, 1219, 1220, 1221, 1222, 1223, 1224, 1225, 1226, 1227
 1228, 1229, 1230, 1231, 1232, 1233, 1234, 1235, 1236, 1237, 1238, 1239, 1240, 1241, 1242, 1243
 1244, 1245, 1246, 1247, 1248, 1249, 1250, 1251, 1252, 1253, 1254
*ELSET, ELSET=HEATFLUX_BOTTOM_S1
 7521,
*ELSET, ELSET=HEATFLUX_BOTTOM_S2
  167,  171,  230,  481,  483,  539,  549,  596,  617,  673, 1307, 1308, 1382, 1403, 1649, 1656
 1688, 1732, 1734, 1750, 1758, 1760, 1763, 1783, 1786, 1789, 1795, 1799, 1802, 1803, 1805, 1895
 1906, 1914, 1929, 1930, 1945, 1948, 1957, 1977, 2019, 2027, 2039, 2040, 2043, 2096, 2127, 2231
 2235, 2244, 2703, 4756, 4809, 4846, 5010, 5082, 5281, 7188, 7204, 7220, 7471, 7523, 7525, 7527
 7528, 7529, 7533, 7537, 7538, 7539, 7541, 7542, 7543, 7547, 7551, 7552, 7553, 7555, 7556, 7557
 7562, 7566, 7567, 7568, 7571, 7572, 7576, 7580, 7581, 7582, 7585, 7586, 7590, 7594, 7595, 7596
 7599, 7600, 7604, 7608, 7609, 7610, 7613, 7614, 7618, 7622, 7623, 7624, 7627, 7628, 7632, 7636
 7637, 7638, 7641, 7642, 7647, 7649, 7651, 7652, 7653, 7656, 7657, 7661, 7663, 7665, 7666, 7667
 7670, 7671, 7675, 7677, 7679, 7680, 7681, 7685, 7759, 7763, 7855, 7869, 7877, 7891, 7911, 7913
 8077, 8221, 8233, 8241, 8245, 8256, 8258, 8259, 8261, 8266, 8271, 8277, 8278, 8283, 8285, 8287
 8289, 8293, 8295, 8297, 8300, 8304, 8305, 8307, 8308, 8310, 8312, 8313, 8314, 8319, 8321, 8323
 8327, 8328, 8331, 8343, 8344, 8345, 8348, 8381, 8443, 8447, 8449, 8451, 8455, 8458, 8461, 8463
 8464, 8466, 8469, 8470, 8471, 8473, 8475, 8527, 8529, 8530, 8533, 8871, 8893, 8921, 8939, 8949
 8951, 8963, 8971, 8977, 8979, 8991, 8997, 8999, 9005, 9007, 9019, 9025, 9027, 9033, 9035, 9047
 9053, 9055, 9061, 9063, 9075, 9081, 9083, 9089, 9091, 9103, 9109, 9111, 9113, 9119, 9131, 9133
 9139, 9141, 9147, 9159, 9161, 9167, 9169, 9175, 9187
*ELSET, ELSET=HEATSOURCE1, GENERATE
       1,     63948,       1
*ELSET, ELSET=REGION1, GENERATE
 31902,  63948,      1
*ELSET, ELSET=REGION2, GENERATE
     1,  31901,      1   
**
** In_Temperature
**
*BOUNDARY, OP=NEW
INNODE, 11, 11, 	  20.
**
** Top_Temperature
**
*BOUNDARY, OP=NEW
TOP_TEMPERATURE, 11, 11, 	  20.
**
** HeatFlux_bottom
**
*DFLUX, OP=NEW
HEATFLUX_BOTTOM_S1, S1,   2000.
**
*DFLUX, OP=NEW
HEATFLUX_BOTTOM_S2, S2,   2000.
**
** HeatSource1
**
*DFLUX, OP=NEW
HEATSOURCE1, BF,         0.
**
*FILM, OP=NEW
*CFLUX, OP=NEW
**
*NODE PRINT, FREQ=1
NT,
**
*EL PRINT, POS=INTEG, FREQ=0
**
*EL PRINT, POS=NODES, FREQ=0
**
*EL PRINT, POS=CENTR, FREQ=0
**
*EL PRINT, POS=AVERAGE, FREQ=0
**
*MODAL PRINT, FREQ=99999
**
*PRINT, FREQ=1
** NODE OUTPUT REQUESTS
**
*OUTPUT, FIELD, FREQ=1
*NODE OUTPUT
NT,
**
** ELEMENT OUTPUT REQUESTS
** NONE
** MODAL OUTPUT REQUESTS
** NONE
**
*END STEP
