*HEADING
ABAQUS job created on 25-Oct-12 at 19:21:26
** seed size = 0.0055
*#node, 233
*#element, 410
**
*NODE
   1,  0.100000001, 0.0199999996
      2,           0., 0.0299999993
      3,           0.,           0.
      4,  0.100000001,           0.
      5,  0.100000001, 0.0500000007
      6,           0., 0.0500000007
      7, 0.0954571515, 0.0305023082
      8, 0.0898088962, 0.0404412597
      9,  0.084956333, 0.0454905368
     10, 0.0814138576, 0.0465542935
     11, 0.0777558982, 0.0446444452
     12, 0.0738377348, 0.0380616784
     13,  0.069800891,  0.024103079
     14,  0.066547215, 0.0120020276
     15, 0.0638615564, 0.00564238662
     16, 0.0617720708, 0.00296440371
     17, 0.0595516935, 0.00229572272
     18,  0.057782907, 0.00336827547
     19, 0.0554953851, 0.00686633028
     20, 0.0525921397,  0.014734379
** ... 57 like lines cut
**
*ELEMENT, TYPE=DS3 , ELSET=MATERIAL1_PROPERTIES
  1, 56, 10, 11
 2, 56, 11, 12
 3, 56,  9, 10
 4, 56,  8,  9
 5, 57, 56, 12
 6, 58, 14, 43
 7, 65,  1, 64
 8, 43, 14, 15
 9, 43, 15, 16
10, 42, 16, 17
11, 41, 17, 18
12, 41, 18, 19
13, 39, 31, 32
14, 59, 41, 19
15, 59, 40, 41
16, 66, 60, 29
17, 60, 59, 20
18, 61, 29, 60
19, 63, 23, 62
20, 62, 26, 27
** ... 106 like lines cut
**
** Material1_Properties
**
*SHELL SECTION, ELSET=MATERIAL1_PROPERTIES, MATERIAL=MATERIAL1
       0.001,       5
**
** Material1
** Date: 25-Oct-12           Time: 18:13:37
**
*MATERIAL, NAME=MATERIAL1
**
*DENSITY
       7860.,
**
*CONDUCTIVITY, TYPE=ISO
         1.0,
**
*SPECIFIC HEAT
        450.,
**
** Step  1, Default Heat Transfer Step
** LoadCase, Default
**
*STEP, AMPLITUDE=RAMP, INC=10
Steady State Heat Transfer
**
This load case is the default load case that always appears
*HEAT TRANSFER, STEADY STATE
         0.1,          1.
**
*NSET, NSET=INNODE
	2
*NSET, NSET=TOP_TEMPERATURE
   5,  6, 48, 49, 50, 51, 52, 53, 54
*ELSET, ELSET=HEATFLUX_BOTTOM_S1
 34, 36, 39, 40
*ELSET, ELSET=HEATFLUX_BOTTOM_S2
 15, 28, 35, 37
*ELSET, ELSET=HEATSOURCE1, GENERATE
       1,     126,       1
*ELSET, ELSET=REGION1, GENERATE
 64,  126,    1
*ELSET, ELSET=REGION2, GENERATE
  1,  63,   1
**
** In_Temperature
**
*BOUNDARY, OP=NEW
INNODE, 11, 11, 	  20.
**
** Top_Temperature
**
*BOUNDARY, OP=NEW
TOP_TEMPERATURE, 11, 11, 	  20.
**
** HeatFlux_bottom
**
*DFLUX, OP=NEW
HEATFLUX_BOTTOM_S1, S1,   2000.
**
*DFLUX, OP=NEW
HEATFLUX_BOTTOM_S2, S2,   2000.
**
** HeatSource1
**
*DFLUX, OP=NEW
HEATSOURCE1, BF,         0.
**
*FILM, OP=NEW
*CFLUX, OP=NEW
**
*NODE PRINT, FREQ=1
NT,
**
*EL PRINT, POS=INTEG, FREQ=0
**
*EL PRINT, POS=NODES, FREQ=0
**
*EL PRINT, POS=CENTR, FREQ=0
**
*EL PRINT, POS=AVERAGE, FREQ=0
**
*MODAL PRINT, FREQ=99999
**
*PRINT, FREQ=1
** NODE OUTPUT REQUESTS
**
*OUTPUT, FIELD, FREQ=1
*NODE OUTPUT
NT,
**
** ELEMENT OUTPUT REQUESTS
** NONE
** MODAL OUTPUT REQUESTS
** NONE
**
*END STEP
