*HEADING
ABAQUS job created on 25-Oct-12 at 19:21:26
** seed size = 0.0055
*#node, 233
*#element, 410
**
*NODE
      1,  0.100000001, 0.0199999996
      2,           0., 0.0299999993
      3,           0.,           0.
      4,  0.100000001,           0.
      5,  0.100000001, 0.0500000007
      6,           0., 0.0500000007
      7, 0.0977302864, 0.0254965294
      8, 0.0952623785, 0.0309064724
      9, 0.0925062448, 0.0361745618
     10, 0.0892799795, 0.0411646366
     11, 0.0851236954, 0.0453804284
     12, 0.0815087929, 0.0465598889
     13, 0.0782083198, 0.0450752564
     14, 0.0749935061, 0.0405901037
     15, 0.0728602558, 0.0354722291
     16, 0.0712492168, 0.0301638935
     17, 0.0699491277, 0.0247691106
     18,  0.068801403, 0.0198732093
     19, 0.0674919561, 0.0150194382
     20, 0.0659281611, 0.0102450587
** ... 205 like lines cut
**
*ELEMENT, TYPE=DS3 , ELSET=MATERIAL1_PROPERTIES
   1, 100,  12,  13
  2, 100,  13,  14
  3, 100,  11,  12
  4, 101, 100,  14
  5, 102,  10, 100
  6, 139, 101, 103
  7, 103, 101,  15
  8, 105,   8, 104
  9, 156, 148, 152
 10, 107, 106,  18
 11, 109, 108,  20
 12, 131,  71, 130
 13, 109,  21,  67
 14,  67,  21,  22
 15,  66,  22,  23
 16,  65,  23,  24
 17,  65,  24,  25
 18,  59,  45,  46
 19, 110,  25,  26
 20, 111, 110,  26
** ... 374 like lines cut
**
** Material1_Properties
**
*SHELL SECTION, ELSET=MATERIAL1_PROPERTIES, MATERIAL=MATERIAL1
       0.001,       5
**
** Material1
** Date: 25-Oct-12           Time: 18:13:37
**
*MATERIAL, NAME=MATERIAL1
**
*DENSITY
       7860.,
**
*CONDUCTIVITY, TYPE=ISO
         0.6,
**
*SPECIFIC HEAT
        450.,
**
** Step  1, Default Heat Transfer Step
** LoadCase, Default
**
*STEP, AMPLITUDE=RAMP, INC=10
Steady State Heat Transfer
**
This load case is the default load case that always appears
*HEAT TRANSFER, STEADY STATE
         0.1,          1.
**
*NSET, NSET=INNODE
	2
*NSET, NSET=TOP_TEMPERATURE
  5,  6, 80, 81, 82, 83, 84, 85, 86, 87, 88, 89, 90, 91, 92, 93
 94, 95, 96
*ELSET, ELSET=HEATFLUX_BOTTOM_S1
 52, 58, 59, 66, 67
*ELSET, ELSET=HEATFLUX_BOTTOM_S2
57,  63,  65,  68,  91,  92, 123, 132, 135, 137, 140, 143
*ELSET, ELSET=HEATFLUX_BOTTOM_S3
 48	
*ELSET, ELSET=HEATSOURCE1, GENERATE
       1,     394,       1
*ELSET, ELSET=REGION1, GENERATE
 198,  394,    1
*ELSET, ELSET=REGION2, GENERATE
   1,  197,    1  
**
** In_Temperature
**
*BOUNDARY, OP=NEW
INNODE, 11, 11, 	  20.
**
** Top_Temperature
**
*BOUNDARY, OP=NEW
TOP_TEMPERATURE, 11, 11, 	  20.
**
** HeatFlux_bottom
**
*DFLUX, OP=NEW
HEATFLUX_BOTTOM_S1, S1,   2000.
**
*DFLUX, OP=NEW
HEATFLUX_BOTTOM_S2, S2,   2000.
**
*DFLUX, OP=NEW
HEATFLUX_BOTTOM_S3, S3,   2000.
**
** HeatSource1
**
*DFLUX, OP=NEW
HEATSOURCE1, BF,         0.
**
*FILM, OP=NEW
*CFLUX, OP=NEW
**
*NODE PRINT, FREQ=1
NT,
**
*EL PRINT, POS=INTEG, FREQ=0
**
*EL PRINT, POS=NODES, FREQ=0
**
*EL PRINT, POS=CENTR, FREQ=0
**
*EL PRINT, POS=AVERAGE, FREQ=0
**
*MODAL PRINT, FREQ=99999
**
*PRINT, FREQ=1
** NODE OUTPUT REQUESTS
**
*OUTPUT, FIELD, FREQ=1
*NODE OUTPUT
NT,
**
** ELEMENT OUTPUT REQUESTS
** NONE
** MODAL OUTPUT REQUESTS
** NONE
**
*END STEP
