*Heading
** Job name: temp_all_semicircle_ro_p041_1864_elems Model name: Model-1
** Generated by: Abaqus/CAE 6.13-2
*Preprint, echo=NO, model=NO, history=NO, contact=NO
**
** PARTS
**
*Part, name=Part-1
*Node
      1, 0.00999999978,           0.
      2, 0.0900000036,           0.
      3,  0.100000001,           0.
      4,  0.100000001, 0.0500000007
      5,           0., 0.0500000007
      6,           0.,           0.
      7, 0.0100789312, 0.00251162075
      8, 0.0103154117, 0.00501332944
      9, 0.0107085099, 0.00749525242
     10, 0.0112566734, 0.00994759519
     11, 0.0119577395, 0.0123606799
     12, 0.0128089404,  0.014724982
     13, 0.0138069177, 0.0170311723
     14, 0.0149477329, 0.0192701463
     15, 0.0162268821, 0.0214330722
     16, 0.0176393203, 0.0235114098
     17, 0.0191794708, 0.0254969597
     18, 0.0208412558, 0.0273818839
     19, 0.0226181149,  0.029158745
     20, 0.0245030411, 0.0308205299
** ... 973 like lines cut
*Element, type=DC2D3
  1, 289, 138,   7
  2, 273, 133, 272
  3, 279, 127, 278
  4, 282, 124, 281
  5, 313, 236, 307
  6, 242, 107, 241
  7, 246, 103, 245
  8, 249, 100, 248
  9, 251,  98, 250
 10, 255,  94, 254
 11, 258,  91, 257
 12, 262,  87, 261
 13, 221,  74, 220
 14, 225,  70, 224
 15, 228,  67, 227
 16, 184, 183,  50
 17, 234,  61, 233
 18, 276, 130, 275
 19,  55,   2,  56
 20, 219,  55,  56
** ... 1844 like lines cut
*Nset, nset=REGION1
   1,   2,   3,   4,   5,   6,   7,   8,   9,  10,  11,  12,  13,  14,  15,  16
  17,  18,  19,  20,  21,  22,  23,  24,  25,  26,  27,  28,  29,  30,  31,  32
  33,  34,  35,  36,  37,  38,  39,  40,  41,  42,  43,  44,  45,  46,  47,  48
  49,  50,  51,  52,  53,  54,  55,  56,  57,  58,  59,  60,  61,  62,  63,  64
  65,  66,  67,  68,  69,  70,  71,  72,  73,  74,  75,  76,  77,  78,  79,  80
  81,  82,  83,  84,  85,  86,  87,  88,  89,  90,  91,  92,  93,  94,  95,  96
  97,  98,  99, 100, 101, 102, 103, 104, 105, 106, 107, 108, 109, 110, 111, 112
 113, 114, 115, 116, 117, 118, 119, 120, 121, 122, 123, 124, 125, 126, 127, 128
 129, 130, 131, 132, 133, 134, 135, 136, 137, 138, 170, 171, 172, 173, 174, 175
 176, 177, 178, 179, 180, 181, 182, 183, 184, 185, 186, 187, 188, 189, 190, 191
 192, 193, 194, 195, 196, 197, 198, 199, 200, 201, 202, 203, 204, 205, 206, 207
 208, 209, 210, 211, 212, 213, 214, 215, 216, 217, 218, 219, 220, 221, 222, 223
 224, 225, 226, 227, 228, 229, 230, 231, 232, 233, 234, 235, 236, 237, 238, 239
 240, 241, 242, 243, 244, 245, 246, 247, 248, 249, 250, 251, 252, 253, 254, 255
 256, 257, 258, 259, 260, 261, 262, 263, 264, 265, 266, 267, 268, 269, 270, 271
 272, 273, 274, 275, 276, 277, 278, 279, 280, 281, 282, 283, 284, 285, 286, 287
 288, 289, 290, 291, 292, 293, 294, 295, 296, 297, 298, 299, 300, 301, 302, 303
 304, 305, 306, 307, 308, 309, 310, 311, 312, 313, 314, 315, 316, 317, 318, 319
 320, 321, 322, 323, 324, 325, 326, 327, 328, 329, 330, 331, 332, 333, 334, 335
 336, 337, 338, 339, 340, 341, 342, 343, 344, 345, 346, 347, 348, 349, 350, 351
** ... 13 like lines cut
*Elset, elset=REGION1, generate
   1,  894,    1
*Nset, nset=REGION2
   1,   2,   7,   8,   9,  10,  11,  12,  13,  14,  15,  16,  17,  18,  19,  20
  21,  22,  23,  24,  25,  26,  27,  28,  29,  30,  31,  32,  33,  34,  35,  36
  37,  38,  39,  40,  41,  42,  43,  44,  45,  46,  47,  48,  49,  50,  51,  52
  53,  54,  55, 139, 140, 141, 142, 143, 144, 145, 146, 147, 148, 149, 150, 151
 152, 153, 154, 155, 156, 157, 158, 159, 160, 161, 162, 163, 164, 165, 166, 167
 168, 169, 549, 550, 551, 552, 553, 554, 555, 556, 557, 558, 559, 560, 561, 562
 563, 564, 565, 566, 567, 568, 569, 570, 571, 572, 573, 574, 575, 576, 577, 578
 579, 580, 581, 582, 583, 584, 585, 586, 587, 588, 589, 590, 591, 592, 593, 594
 595, 596, 597, 598, 599, 600, 601, 602, 603, 604, 605, 606, 607, 608, 609, 610
 611, 612, 613, 614, 615, 616, 617, 618, 619, 620, 621, 622, 623, 624, 625, 626
 627, 628, 629, 630, 631, 632, 633, 634, 635, 636, 637, 638, 639, 640, 641, 642
 643, 644, 645, 646, 647, 648, 649, 650, 651, 652, 653, 654, 655, 656, 657, 658
 659, 660, 661, 662, 663, 664, 665, 666, 667, 668, 669, 670, 671, 672, 673, 674
 675, 676, 677, 678, 679, 680, 681, 682, 683, 684, 685, 686, 687, 688, 689, 690
 691, 692, 693, 694, 695, 696, 697, 698, 699, 700, 701, 702, 703, 704, 705, 706
 707, 708, 709, 710, 711, 712, 713, 714, 715, 716, 717, 718, 719, 720, 721, 722
 723, 724, 725, 726, 727, 728, 729, 730, 731, 732, 733, 734, 735, 736, 737, 738
 739, 740, 741, 742, 743, 744, 745, 746, 747, 748, 749, 750, 751, 752, 753, 754
 755, 756, 757, 758, 759, 760, 761, 762, 763, 764, 765, 766, 767, 768, 769, 770
 771, 772, 773, 774, 775, 776, 777, 778, 779, 780, 781, 782, 783, 784, 785, 786
** ... 13 like lines cut
*Elset, elset=REGION2, generate
  895,  1864,     1
*Nset, nset=TOP
   4,   5,  78,  79,  80,  81,  82,  83,  84,  85,  86,  87,  88,  89,  90,  91
  92,  93,  94,  95,  96,  97,  98,  99, 100, 101, 102, 103, 104, 105, 106, 107
 108, 109, 110, 111, 112, 113, 114, 115, 116
*Elset, elset=TOP
  57,  58,  76,  79, 267, 270, 272, 274, 276, 278, 280, 282, 284, 286, 288, 290
 292, 294, 296, 298, 300, 302, 304, 306, 308, 310, 312, 314, 316, 318, 320, 322
 324, 326, 328, 330, 332, 334, 336, 419
*Nset, nset=BOTTOM
   1,   2,   3,   6,  56,  57,  58, 136, 137, 138, 139, 140, 141, 142, 143, 144
 145, 146, 147, 148, 149, 150, 151, 152, 153, 154, 155, 156, 157, 158, 159, 160
 161, 162, 163, 164, 165, 166, 167, 168, 169
*Elset, elset=BOTTOM
   19,   55,   56,  115,  134,  233,  375,  381,  909,  912,  943,  944,  948,  950,  951,  974
  975,  986,  988,  990,  992,  994,  996,  998, 1000, 1002, 1004, 1006, 1008, 1010, 1012, 1014
 1016, 1018, 1020, 1022, 1024, 1026, 1028, 1214
*Nset, nset=LEFT
   5,   6, 117, 118, 119, 120, 121, 122, 123, 124, 125, 126, 127, 128, 129, 130
 131, 132, 133, 134, 135
*Elset, elset=LEFT
  76,  77, 116, 339, 342, 344, 346, 348, 350, 352, 354, 356, 358, 360, 362, 364
 366, 368, 370, 372
*Nset, nset=RIGHT
  3,  4, 59, 60, 61, 62, 63, 64, 65, 66, 67, 68, 69, 70, 71, 72
 73, 74, 75, 76, 77
*Elset, elset=RIGHT
  54,  57,  60, 237, 240, 242, 244, 246, 248, 250, 252, 254, 256, 258, 260, 262
 264, 266, 383, 409
*End Part
**  
**
** ASSEMBLY
**
*Assembly, name=Assembly
**  
*Instance, name=Part-1-1, part=Part-1
*End Instance
**  
*Nset, nset=TopNodes, instance=Part-1-1
   4,   5,  78,  79,  80,  81,  82,  83,  84,  85,  86,  87,  88,  89,  90,  91
  92,  93,  94,  95,  96,  97,  98,  99, 100, 101, 102, 103, 104, 105, 106, 107
 108, 109, 110, 111, 112, 113, 114, 115, 116
*Elset, elset=TopNodes, instance=Part-1-1
  57,  58,  76,  79, 267, 270, 272, 274, 276, 278, 280, 282, 284, 286, 288, 290
 292, 294, 296, 298, 300, 302, 304, 306, 308, 310, 312, 314, 316, 318, 320, 322
 324, 326, 328, 330, 332, 334, 336, 419
*End Assembly
** 
** MATERIALS
** 
*Material, name=Material-1
*Conductivity
1.,
** ----------------------------------------------------------------
** 
** STEP: Thermal
** 
*Step, name=Thermal, nlgeom=NO
*Heat Transfer, end=PERIOD, deltmx=0.1
1., 1., 1e-05, 1., 
** 
** OUTPUT REQUESTS
** 
*Restart, write, frequency=0
** 
** FIELD OUTPUT: F-Output-1
** 
*Output, field, variable=PRESELECT
*Output, history, frequency=0
*End Step
