*Heading
** Job name: temp_all_semicircle_ro_p041_112_elems Model name: Model-1
** Generated by: Abaqus/CAE 6.13-2
*Preprint, echo=NO, model=NO, history=NO, contact=NO
**
** PARTS
**
*Part, name=Part-1
*Node
      1, 0.00899999961,           0.
      2, 0.0909999982,           0.
      3,  0.100000001,           0.
      4,  0.100000001, 0.0500000007
      5,           0., 0.0500000007
      6,           0.,           0.
      7, 0.0101913856, 0.00981194247
      8, 0.0136963027, 0.0190536492
      9, 0.0193110593, 0.0271880291
     10, 0.0267093461, 0.0337423384
     11, 0.0354611985, 0.0383356661
     12, 0.0450579971, 0.0407010652
     13, 0.0549420044, 0.0407010652
     14, 0.0645387992, 0.0383356661
     15, 0.0732906535, 0.0337423384
     16, 0.0806889385, 0.0271880291
     17,  0.086303696, 0.0190536492
     18, 0.0898086131, 0.00981194247
     19,  0.100000001, 0.00999999978
     20,  0.100000001, 0.0199999996
** ... 52 like lines cut
*Element, type=DC2D3
 1, 35,  1,  7
 2, 34,  7,  8
 3, 44, 33, 34
 4, 50, 33, 44
 5, 47, 43, 10
 6, 47, 11, 29
 7, 28, 11, 12
 8, 27, 12, 13
 9, 26, 13, 14
10, 48, 14, 15
11, 51, 24, 45
12, 51, 49, 22
13, 49, 46, 21
14, 20, 17, 18
15, 19, 18,  2
16, 19,  2,  3
17, 51,  4, 23
18, 49, 21, 22
19, 46, 20, 21
20, 19, 20, 18
** ... 92 like lines cut
*Nset, nset=TOP
  4,  5, 23, 24, 25, 26, 27, 28, 29, 30, 31
*Elset, elset=TOP
 17, 21, 22, 23, 24, 25, 26, 27, 28, 50
*Nset, nset=BOTTOM
  1,  2,  3,  6, 36, 37, 38, 39, 40, 41, 42
*Elset, elset=BOTTOM
  16,  30,  54,  66,  76,  78,  94,  96,  97, 101
*Nset, nset=LEFT
  5,  6, 32, 33, 34, 35
*Elset, elset=LEFT
  3, 21, 30, 31, 49
*Nset, nset=RIGHT
  3,  4, 19, 20, 21, 22
*Elset, elset=RIGHT
 16, 18, 19, 20, 46
*Nset, nset=REGION1
  1,  2,  7,  8,  9, 10, 11, 12, 13, 14, 15, 16, 17, 18, 36, 37
 38, 39, 40, 41, 42, 53, 54, 55, 56, 57, 58, 59, 60, 61, 62, 63
 64, 65, 66, 67, 68, 69, 70, 71, 72
*Elset, elset=REGION1, generate
  54,  112,    1
*Nset, nset=REGION2
  1,  2,  3,  4,  5,  6,  7,  8,  9, 10, 11, 12, 13, 14, 15, 16
 17, 18, 19, 20, 21, 22, 23, 24, 25, 26, 27, 28, 29, 30, 31, 32
 33, 34, 35, 43, 44, 45, 46, 47, 48, 49, 50, 51, 52
*Elset, elset=REGION2, generate
  1,  53,   1
*Nset, nset=_PickedSet9, internal, generate
  1,  72,   1
*Elset, elset=_PickedSet9, internal, generate
   1,  112,    1
** Section: Section-1
*Solid Section, elset=_PickedSet9, material=Material-1
,
*End Part
**  
**
** ASSEMBLY
**
*Assembly, name=Assembly
**  
*Instance, name=Part-1-1, part=Part-1
*End Instance
**  
*Nset, nset=_PickedSet6, internal, instance=Part-1-1
  1,  2,  3,  6, 36, 37, 38, 39, 40, 41, 42
*Elset, elset=_PickedSet6, internal, instance=Part-1-1
  16,  30,  54,  66,  76,  78,  94,  96,  97, 101
*Nset, nset=_PickedSet7, internal, instance=Part-1-1
  4,  5, 23, 24, 25, 26, 27, 28, 29, 30, 31
*Elset, elset=_PickedSet7, internal, instance=Part-1-1
 17, 21, 22, 23, 24, 25, 26, 27, 28, 50
*Nset, nset=_PickedSet8, internal, instance=Part-1-1
  5,  6, 32, 33, 34, 35
*Elset, elset=_PickedSet8, internal, instance=Part-1-1
  3, 21, 30, 31, 49
*Nset, nset=_PickedSet9, internal, instance=Part-1-1
  3,  4, 19, 20, 21, 22
*Elset, elset=_PickedSet9, internal, instance=Part-1-1
 16, 18, 19, 20, 46
*End Assembly
** 
** MATERIALS
** 
*Material, name=Material-1
*Conductivity
1.,
** ----------------------------------------------------------------
** 
** STEP: Step-1
** 
*Step, name=Step-1, nlgeom=NO
*Heat Transfer, end=PERIOD, deltmx=0.1
1., 1., 1e-05, 1., 
** 
** BOUNDARY CONDITIONS
** 
** Name: BOTTOM Type: Temperature
*Boundary
_PickedSet6, 11, 11
** Name: LEFT Type: Temperature
*Boundary
_PickedSet8, 11, 11
** Name: RIGHT Type: Temperature
*Boundary
_PickedSet9, 11, 11
** Name: TOP Type: Temperature
*Boundary
_PickedSet7, 11, 11
** 
** OUTPUT REQUESTS
** 
*Restart, write, frequency=0
*Print, solve=NO
** 
** FIELD OUTPUT: F-Output-1
** 
*Output, field, variable=PRESELECT
*Output, history, frequency=0
*End Step
