*Heading
** Job name: temp_all_semicircle_ro_p041_116_elems Model name: Model-1
** Generated by: Abaqus/CAE 6.13-2
*Preprint, echo=NO, model=NO, history=NO, contact=NO
**
** PARTS
**
*Part, name=Part-1
*Node
      1, 0.00999999978,           0.
      2, 0.0900000036,           0.
      3,  0.100000001,           0.
      4,  0.100000001, 0.0500000007
      5,           0., 0.0500000007
      6,           0.,           0.
      7, 0.0111623276, 0.00957262702
      8, 0.0145817585, 0.0185889266
      9, 0.0200595707,  0.026524907
     10,   0.02727741, 0.0329193547
     11, 0.0358158052,  0.037400648
     12, 0.0451785326, 0.0397083536
     13, 0.0548214689, 0.0397083536
     14, 0.0641841963,  0.037400648
     15, 0.0727225915, 0.0329193547
     16, 0.0799404308,  0.026524907
     17, 0.0854182392, 0.0185889266
     18, 0.0888376758, 0.00957262702
     19,  0.100000001, 0.00999999978
     20,  0.100000001, 0.0199999996
** ... 54 like lines cut
*Element, type=DC2D3
 1, 35,  1,  7
 2, 49, 34, 35
 3, 52, 33, 44
 4, 47, 43, 10
 5, 47, 11, 29
 6, 28, 11, 12
 7, 27, 12, 13
 8, 26, 13, 14
 9, 48, 14, 15
10, 45, 15, 16
11, 53, 50, 22
12, 50, 21, 22
13, 51, 20, 46
14, 19, 18,  2
15, 19,  2,  3
16, 44,  9, 43
17, 53,  4, 23
18, 50, 46, 21
19, 46, 20, 21
20, 51, 19, 20
** ... 96 like lines cut
*Nset, nset=REGION1
  1,  2,  3,  4,  5,  6,  7,  8,  9, 10, 11, 12, 13, 14, 15, 16
 17, 18, 19, 20, 21, 22, 23, 24, 25, 26, 27, 28, 29, 30, 31, 32
 33, 34, 35, 43, 44, 45, 46, 47, 48, 49, 50, 51, 52, 53, 54
*Elset, elset=REGION1, generate
  1,  57,   1
*Nset, nset=REGION2
  1,  2,  7,  8,  9, 10, 11, 12, 13, 14, 15, 16, 17, 18, 36, 37
 38, 39, 40, 41, 42, 55, 56, 57, 58, 59, 60, 61, 62, 63, 64, 65
 66, 67, 68, 69, 70, 71, 72, 73, 74
*Elset, elset=REGION2, generate
  58,  116,    1
*Nset, nset=TOP
  4,  5, 23, 24, 25, 26, 27, 28, 29, 30, 31
*Elset, elset=TOP
 17, 24, 25, 26, 27, 34, 38, 43, 54, 57
*Nset, nset=BOTTOM
  1,  2,  3,  6, 36, 37, 38, 39, 40, 41, 42
*Elset, elset=BOTTOM
  15,  30,  58,  70,  82,  84,  97, 100, 102, 103
*Nset, nset=LEFT
  5,  6, 32, 33, 34, 35
*Elset, elset=LEFT
  2, 21, 30, 36, 53
*Nset, nset=RIGHT
  3,  4, 19, 20, 21, 22
*Elset, elset=RIGHT
 12, 15, 19, 20, 48
*End Part
**  
**
** ASSEMBLY
**
*Assembly, name=Assembly
**  
*Instance, name=Part-1-1, part=Part-1
*End Instance
**  
*Nset, nset=TopNodes, instance=Part-1-1
  4,  5, 23, 24, 25, 26, 27, 28, 29, 30, 31
*Elset, elset=TopNodes, instance=Part-1-1
 17, 24, 25, 26, 27, 34, 38, 43, 54, 57
*End Assembly
** 
** MATERIALS
** 
*Material, name=Material-1
*Conductivity
1.,
** ----------------------------------------------------------------
** 
** STEP: Thermal
** 
*Step, name=Thermal, nlgeom=NO
*Heat Transfer, end=PERIOD, deltmx=0.1
1., 1., 1e-05, 1., 
** 
** OUTPUT REQUESTS
** 
*Restart, write, frequency=0
** 
** FIELD OUTPUT: F-Output-1
** 
*Output, field, variable=PRESELECT
*Output, history, frequency=0
*End Step
