*Heading
** Job name: temp_all_semicircle_ro_p041_40k_elems Model name: Model-1
** Generated by: Abaqus/CAE 6.10-1
*Preprint, echo=NO, model=NO, history=NO, contact=NO
**
** PARTS
**
*Part, name=Part-1
*Node
      1, 0.00899999961,           0.
      2, 0.0909999982,           0.
      3,  0.100000001,           0.
      4,  0.100000001, 0.0500000007
      5,           0., 0.0500000007
      6,           0.,           0.
      7, 0.00900303945, 0.000499233021
      8, 0.00901215803, 0.000998392003
      9, 0.00902735349, 0.0014974029
     10, 0.00904862396, 0.00199619192
     11, 0.00907596573, 0.00249468489
     12,  0.009109376, 0.00299280789
     13, 0.00914884917, 0.00349048711
     14, 0.00919437967, 0.00398764899
     15, 0.00924596004, 0.00448421948
     16, 0.00930358283,  0.004980125
     17, 0.00936724059, 0.00547529245
     18, 0.00943692215, 0.00596964778
     19, 0.00951261818, 0.00646311836
     20, 0.00959431753, 0.00695563015
** ... 20646 like lines cut
*Element, type=DC2D3
    1,  2879,     7,     8
    2,  4187,  3831,  3765
    3,  5310,  4895,  4809
    4,  6096,  5782,   902
    5,  7350,  7077,  7245
    6,  6472,  6241,   913
    7,  5717,  5567,   928
    8,  4188,  4183,   938
    9,  3426,  2880,   661
   10,  3425,  2881,   938
   11,  3424,  3423,   862
   12,  5260,  2881,  3424
   13,  3423,  3070,   862
   14,  4530,  4073,  4255
   15,  5718,  5311,  5104
   16,  5719,  5666,  5172
   17,  4874,   896,  4470
   18,  3489,  2882,   886
   19,  3481,   690,   691
   20,  3481,   886,  2882
** ... 40710 like lines cut
*Nset, nset=TOP
   4,   5, 380, 381, 382, 383, 384, 385, 386, 387, 388, 389, 390, 391, 392, 393
 394, 395, 396, 397, 398, 399, 400, 401, 402, 403, 404, 405, 406, 407, 408, 409
 410, 411, 412, 413, 414, 415, 416, 417, 418, 419, 420, 421, 422, 423, 424, 425
 426, 427, 428, 429, 430, 431, 432, 433, 434, 435, 436, 437, 438, 439, 440, 441
 442, 443, 444, 445, 446, 447, 448, 449, 450, 451, 452, 453, 454, 455, 456, 457
 458, 459, 460, 461, 462, 463, 464, 465, 466, 467, 468, 469, 470, 471, 472, 473
 474, 475, 476, 477, 478, 479, 480, 481, 482, 483, 484, 485, 486, 487, 488, 489
 490, 491, 492, 493, 494, 495, 496, 497, 498, 499, 500, 501, 502, 503, 504, 505
 506, 507, 508, 509, 510, 511, 512, 513, 514, 515, 516, 517, 518, 519, 520, 521
 522, 523, 524, 525, 526, 527, 528, 529, 530, 531, 532, 533, 534, 535, 536, 537
 538, 539, 540, 541, 542, 543, 544, 545, 546, 547, 548, 549, 550, 551, 552, 553
 554, 555, 556, 557, 558, 559, 560, 561, 562, 563, 564, 565, 566, 567, 568, 569
 570, 571, 572, 573, 574, 575, 576, 577, 578
*Elset, elset=TOP
  172,  349,  350,  373,  431,  929,  946,  948,  958,  959,  976,  989, 1014, 1041, 1042, 1044
 1067, 1105, 1127, 1128, 1134, 1140, 1144, 1147, 1148, 1181, 1194, 1196, 1203, 1244, 1253, 1258
 1273, 1283, 1319, 1321, 2764, 4071, 4079, 4248, 4273, 4280, 4281, 4289, 4458, 4524, 4525, 4526
 4527, 4528, 4530, 4531, 4532, 4536, 4540, 4541, 4542, 4544, 4545, 4546, 4550, 4554, 4555, 4556
 4559, 4560, 4564, 4568, 4569, 4570, 4573, 4574, 4578, 4580, 4582, 4583, 4584, 4587, 4588, 4593
 4594, 4595, 4597, 4598, 4599, 4603, 4607, 4608, 4609, 4612, 4613, 4617, 4621, 4622, 4623, 4626
 4627, 4631, 4633, 4635, 4636, 4637, 4640, 4641, 4645, 4647, 4649, 4650, 4651, 4654, 4655, 4776
 4814, 4828, 4830, 4978, 4982, 4993, 5000, 5001, 5004, 5008, 5011, 5015, 5016, 5018, 5019, 5026
 5027, 5032, 5036, 5041, 5044, 5047, 5050, 5052, 5055, 5058, 5059, 5060, 5062, 5063, 5066, 5068
 5070, 5074, 5075, 5078, 5084, 5088, 5244, 5246, 5248, 5250, 5251, 5254, 5256, 5262, 5263, 5265
 5268, 5566, 5574, 5576, 5594, 5602, 5604, 5616, 5622, 5624, 5630, 5632, 5644, 5650, 5652, 5658
 5670, 5672, 5678, 5680, 5682, 5700, 5708, 5710, 5722, 5728, 5730, 5736, 5738, 5750, 5756, 5758
 5764, 5776, 5778, 5784, 5786, 5792, 5804, 5806
*Nset, nset=BOTTOM
   1,   2,   3,   6, 264, 265, 266, 267, 268, 269, 270, 271, 272, 273, 274, 275
 276, 277, 278, 279, 280, 678, 679, 680, 681, 682, 683, 684, 685, 686, 687, 688
 689, 690, 691, 692, 693, 694, 695, 696, 697, 698, 699, 700, 701, 702, 703, 704
 705, 706, 707, 708, 709, 710, 711, 712, 713, 714, 715, 716, 717, 718, 719, 720
 721, 722, 723, 724, 725, 726, 727, 728, 729, 730, 731, 732, 733, 734, 735, 736
 737, 738, 739, 740, 741, 742, 743, 744, 745, 746, 747, 748, 749, 750, 751, 752
 753, 754, 755, 756, 757, 758, 759, 760, 761, 762, 763, 764, 765, 766, 767, 768
 769, 770, 771, 772, 773, 774, 775, 776, 777, 778, 779, 780, 781, 782, 783, 784
 785, 786, 787, 788, 789, 790, 791, 792, 793, 794, 795, 796, 797, 798, 799, 800
 801, 802, 803, 804, 805, 806, 807, 808, 809, 810, 811, 812, 813, 814, 815, 816
 817, 818, 819, 820, 821, 822, 823, 824, 825, 826, 827, 828, 829, 830, 831, 832
 833, 834, 835, 836, 837, 838, 839, 840, 841, 842, 843, 844, 845, 846, 847, 848
 849, 850, 851, 852, 853, 854, 855, 856, 857
*Elset, elset=BOTTOM
    19,    21,   703,   759,  1477,  3582,  4301,  4446,  4448,  4449,  4450,  4452,  4453,  4454,  4457,  4657
  4723,  4724,  4725,  4727,  4728,  4729,  4732,  4733,  4742,  4922,  4946,  4949,  4950,  5120,  5124,  5131
  5422,  5423,  5948,  5950, 19184, 19448, 19496, 19792, 19815, 19837, 19900, 19902, 19903, 19925, 19993, 19995
 20015, 20018, 20136, 20210, 20298, 20305, 20354, 20412, 20419, 20448, 20476, 20483, 20536, 20562, 20572, 20608
 20618, 20664, 20675, 20751, 20755, 20780, 20805, 20806, 24049, 24050, 24051, 24052, 24054, 24056, 24057, 24058
 24062, 24066, 24067, 24068, 24070, 24071, 24072, 24076, 24080, 24081, 24082, 24084, 24085, 24086, 24090, 24094
 24095, 24096, 24099, 24100, 24105, 24109, 24110, 24111, 24114, 24115, 24119, 24121, 24123, 24124, 24125, 24128
 24129, 24133, 24135, 24137, 24138, 24139, 24142, 24143, 24147, 24149, 24151, 24152, 24153, 24157, 24167, 24174
 24261, 24262, 24263, 24300, 24305, 24307, 24327, 24336, 24340, 24342, 24344, 24346, 24350, 24356, 24359, 24362
 24365, 24367, 24370, 24372, 24377, 24380, 24382, 24387, 24390, 24392, 24393, 24395, 24396, 24406, 24408, 24410
 24418, 24420, 24422, 24424, 24426, 24427, 24428, 24429, 24430, 24658, 24670, 24678, 24680, 24698, 24706, 24708
 24726, 24734, 24736, 24748, 24754, 24756, 24764, 24766, 24776, 24778, 24784, 24786, 24792, 24804, 24806, 24812
 24814, 24820, 24832, 24834, 24840, 24842, 24848, 24860
*Nset, nset=LEFT
   5,   6, 579, 580, 581, 582, 583, 584, 585, 586, 587, 588, 589, 590, 591, 592
 593, 594, 595, 596, 597, 598, 599, 600, 601, 602, 603, 604, 605, 606, 607, 608
 609, 610, 611, 612, 613, 614, 615, 616, 617, 618, 619, 620, 621, 622, 623, 624
 625, 626, 627, 628, 629, 630, 631, 632, 633, 634, 635, 636, 637, 638, 639, 640
 641, 642, 643, 644, 645, 646, 647, 648, 649, 650, 651, 652, 653, 654, 655, 656
 657, 658, 659, 660, 661, 662, 663, 664, 665, 666, 667, 668, 669, 670, 671, 672
 673, 674, 675, 676, 677
*Elset, elset=LEFT
   22,   47,  122,  124,  203,  244, 1306, 1308, 1309, 1348, 1392, 1393, 1435, 1449, 1466, 1472
 1476, 1529, 1550, 1743, 4524, 4657, 4659, 4661, 4663, 4664, 4665, 4668, 4669, 4674, 4678, 4679
 4680, 4683, 4684, 4688, 4692, 4694, 4696, 4697, 4698, 4701, 4702, 4707, 4711, 4712, 4713, 4716
 4717, 4721, 4738, 4740, 4745, 4756, 4758, 4768, 4774, 4787, 5081, 5090, 5092, 5093, 5096, 5098
 5100, 5101, 5104, 5105, 5109, 5110, 5112, 5113, 5116, 5117, 5121, 5128, 5137, 5140, 5150, 5186
 5814, 5826, 5828, 5834, 5836, 5844, 5846, 5858, 5864, 5872, 5874, 5880, 5892, 5894, 5900, 5902
 5910, 5912, 5924, 5930
*Nset, nset=RIGHT
   3,   4, 281, 282, 283, 284, 285, 286, 287, 288, 289, 290, 291, 292, 293, 294
 295, 296, 297, 298, 299, 300, 301, 302, 303, 304, 305, 306, 307, 308, 309, 310
 311, 312, 313, 314, 315, 316, 317, 318, 319, 320, 321, 322, 323, 324, 325, 326
 327, 328, 329, 330, 331, 332, 333, 334, 335, 336, 337, 338, 339, 340, 341, 342
 343, 344, 345, 346, 347, 348, 349, 350, 351, 352, 353, 354, 355, 356, 357, 358
 359, 360, 361, 362, 363, 364, 365, 366, 367, 368, 369, 370, 371, 372, 373, 374
 375, 376, 377, 378, 379
*Elset, elset=RIGHT
  418,  572,  602,  668,  670,  701,  704,  781,  825,  839,  867,  887,  891,  919,  955, 1527
 3386, 3424, 4234, 4446, 4458, 4460, 4462, 4464, 4465, 4466, 4469, 4470, 4475, 4479, 4480, 4481
 4484, 4485, 4489, 4493, 4495, 4497, 4498, 4499, 4502, 4503, 4508, 4512, 4513, 4514, 4517, 4518
 4522, 4824, 4826, 4866, 4867, 4886, 4888, 4908, 4914, 4920, 4953, 4956, 4960, 4962, 4964, 4966
 4968, 4970, 4971, 4976, 4983, 4987, 4988, 5232, 5233, 5236, 5238, 5239, 5240, 5258, 5273, 5274
 5428, 5440, 5442, 5448, 5450, 5458, 5460, 5472, 5478, 5486, 5488, 5494, 5506, 5508, 5514, 5516
 5524, 5526, 5538, 5544
*Nset, nset=REGION1
     1,     2,     7,     8,     9,    10,    11,    12,    13,    14,    15,    16,    17,    18,    19,    20
    21,    22,    23,    24,    25,    26,    27,    28,    29,    30,    31,    32,    33,    34,    35,    36
    37,    38,    39,    40,    41,    42,    43,    44,    45,    46,    47,    48,    49,    50,    51,    52
    53,    54,    55,    56,    57,    58,    59,    60,    61,    62,    63,    64,    65,    66,    67,    68
    69,    70,    71,    72,    73,    74,    75,    76,    77,    78,    79,    80,    81,    82,    83,    84
    85,    86,    87,    88,    89,    90,    91,    92,    93,    94,    95,    96,    97,    98,    99,   100
   101,   102,   103,   104,   105,   106,   107,   108,   109,   110,   111,   112,   113,   114,   115,   116
   117,   118,   119,   120,   121,   122,   123,   124,   125,   126,   127,   128,   129,   130,   131,   132
   133,   134,   135,   136,   137,   138,   139,   140,   141,   142,   143,   144,   145,   146,   147,   148
   149,   150,   151,   152,   153,   154,   155,   156,   157,   158,   159,   160,   161,   162,   163,   164
   165,   166,   167,   168,   169,   170,   171,   172,   173,   174,   175,   176,   177,   178,   179,   180
   181,   182,   183,   184,   185,   186,   187,   188,   189,   190,   191,   192,   193,   194,   195,   196
   197,   198,   199,   200,   201,   202,   203,   204,   205,   206,   207,   208,   209,   210,   211,   212
   213,   214,   215,   216,   217,   218,   219,   220,   221,   222,   223,   224,   225,   226,   227,   228
   229,   230,   231,   232,   233,   234,   235,   236,   237,   238,   239,   240,   241,   242,   243,   244
   245,   246,   247,   248,   249,   250,   251,   252,   253,   254,   255,   256,   257,   258,   259,   260
   261,   262,   263,   695,   696,   697,   698,   699,   700,   701,   702,   703,   704,   705,   706,   707
   708,   709,   710,   711,   712,   713,   714,   715,   716,   717,   718,   719,   720,   721,   722,   723
   724,   725,   726,   727,   728,   729,   730,   731,   732,   733,   734,   735,   736,   737,   738,   739
   740,   741,   742,   743,   744,   745,   746,   747,   748,   749,   750,   751,   752,   753,   754,   755
** ... 670 like lines cut
*Elset, elset=REGION1, generate
 19103,  40730,      1
*Nset, nset=REGION2
     1,     2,     3,     4,     5,     6,     7,     8,     9,    10,    11,    12,    13,    14,    15,    16
    17,    18,    19,    20,    21,    22,    23,    24,    25,    26,    27,    28,    29,    30,    31,    32
    33,    34,    35,    36,    37,    38,    39,    40,    41,    42,    43,    44,    45,    46,    47,    48
    49,    50,    51,    52,    53,    54,    55,    56,    57,    58,    59,    60,    61,    62,    63,    64
    65,    66,    67,    68,    69,    70,    71,    72,    73,    74,    75,    76,    77,    78,    79,    80
    81,    82,    83,    84,    85,    86,    87,    88,    89,    90,    91,    92,    93,    94,    95,    96
    97,    98,    99,   100,   101,   102,   103,   104,   105,   106,   107,   108,   109,   110,   111,   112
   113,   114,   115,   116,   117,   118,   119,   120,   121,   122,   123,   124,   125,   126,   127,   128
   129,   130,   131,   132,   133,   134,   135,   136,   137,   138,   139,   140,   141,   142,   143,   144
   145,   146,   147,   148,   149,   150,   151,   152,   153,   154,   155,   156,   157,   158,   159,   160
   161,   162,   163,   164,   165,   166,   167,   168,   169,   170,   171,   172,   173,   174,   175,   176
   177,   178,   179,   180,   181,   182,   183,   184,   185,   186,   187,   188,   189,   190,   191,   192
   193,   194,   195,   196,   197,   198,   199,   200,   201,   202,   203,   204,   205,   206,   207,   208
   209,   210,   211,   212,   213,   214,   215,   216,   217,   218,   219,   220,   221,   222,   223,   224
   225,   226,   227,   228,   229,   230,   231,   232,   233,   234,   235,   236,   237,   238,   239,   240
   241,   242,   243,   244,   245,   246,   247,   248,   249,   250,   251,   252,   253,   254,   255,   256
   257,   258,   259,   260,   261,   262,   263,   264,   265,   266,   267,   268,   269,   270,   271,   272
   273,   274,   275,   276,   277,   278,   279,   280,   281,   282,   283,   284,   285,   286,   287,   288
   289,   290,   291,   292,   293,   294,   295,   296,   297,   298,   299,   300,   301,   302,   303,   304
   305,   306,   307,   308,   309,   310,   311,   312,   313,   314,   315,   316,   317,   318,   319,   320
** ... 599 like lines cut
*Elset, elset=REGION2, generate
     1,  19102,      1
*Nset, nset=_PickedSet9, internal, generate
     1,  20666,      1
*Elset, elset=_PickedSet9, internal, generate
     1,  40730,      1
** Section: Section-1
*Solid Section, elset=_PickedSet9, material=Material-1
,
*End Part
**  
**
** ASSEMBLY
**
*Assembly, name=Assembly
**  
*Instance, name=Part-1-1, part=Part-1
*End Instance
**  
*Nset, nset=_PickedSet6, internal, instance=Part-1-1
   1,   2,   3,   6, 264, 265, 266, 267, 268, 269, 270, 271, 272, 273, 274, 275
 276, 277, 278, 279, 280, 678, 679, 680, 681, 682, 683, 684, 685, 686, 687, 688
 689, 690, 691, 692, 693, 694, 695, 696, 697, 698, 699, 700, 701, 702, 703, 704
 705, 706, 707, 708, 709, 710, 711, 712, 713, 714, 715, 716, 717, 718, 719, 720
 721, 722, 723, 724, 725, 726, 727, 728, 729, 730, 731, 732, 733, 734, 735, 736
 737, 738, 739, 740, 741, 742, 743, 744, 745, 746, 747, 748, 749, 750, 751, 752
 753, 754, 755, 756, 757, 758, 759, 760, 761, 762, 763, 764, 765, 766, 767, 768
 769, 770, 771, 772, 773, 774, 775, 776, 777, 778, 779, 780, 781, 782, 783, 784
 785, 786, 787, 788, 789, 790, 791, 792, 793, 794, 795, 796, 797, 798, 799, 800
 801, 802, 803, 804, 805, 806, 807, 808, 809, 810, 811, 812, 813, 814, 815, 816
 817, 818, 819, 820, 821, 822, 823, 824, 825, 826, 827, 828, 829, 830, 831, 832
 833, 834, 835, 836, 837, 838, 839, 840, 841, 842, 843, 844, 845, 846, 847, 848
 849, 850, 851, 852, 853, 854, 855, 856, 857
*Elset, elset=_PickedSet6, internal, instance=Part-1-1
    19,    21,   703,   759,  1477,  3582,  4301,  4446,  4448,  4449,  4450,  4452,  4453,  4454,  4457,  4657
  4723,  4724,  4725,  4727,  4728,  4729,  4732,  4733,  4742,  4922,  4946,  4949,  4950,  5120,  5124,  5131
  5422,  5423,  5948,  5950, 19184, 19448, 19496, 19792, 19815, 19837, 19900, 19902, 19903, 19925, 19993, 19995
 20015, 20018, 20136, 20210, 20298, 20305, 20354, 20412, 20419, 20448, 20476, 20483, 20536, 20562, 20572, 20608
 20618, 20664, 20675, 20751, 20755, 20780, 20805, 20806, 24049, 24050, 24051, 24052, 24054, 24056, 24057, 24058
 24062, 24066, 24067, 24068, 24070, 24071, 24072, 24076, 24080, 24081, 24082, 24084, 24085, 24086, 24090, 24094
 24095, 24096, 24099, 24100, 24105, 24109, 24110, 24111, 24114, 24115, 24119, 24121, 24123, 24124, 24125, 24128
 24129, 24133, 24135, 24137, 24138, 24139, 24142, 24143, 24147, 24149, 24151, 24152, 24153, 24157, 24167, 24174
 24261, 24262, 24263, 24300, 24305, 24307, 24327, 24336, 24340, 24342, 24344, 24346, 24350, 24356, 24359, 24362
 24365, 24367, 24370, 24372, 24377, 24380, 24382, 24387, 24390, 24392, 24393, 24395, 24396, 24406, 24408, 24410
 24418, 24420, 24422, 24424, 24426, 24427, 24428, 24429, 24430, 24658, 24670, 24678, 24680, 24698, 24706, 24708
 24726, 24734, 24736, 24748, 24754, 24756, 24764, 24766, 24776, 24778, 24784, 24786, 24792, 24804, 24806, 24812
 24814, 24820, 24832, 24834, 24840, 24842, 24848, 24860
*Nset, nset=_PickedSet7, internal, instance=Part-1-1
   4,   5, 380, 381, 382, 383, 384, 385, 386, 387, 388, 389, 390, 391, 392, 393
 394, 395, 396, 397, 398, 399, 400, 401, 402, 403, 404, 405, 406, 407, 408, 409
 410, 411, 412, 413, 414, 415, 416, 417, 418, 419, 420, 421, 422, 423, 424, 425
 426, 427, 428, 429, 430, 431, 432, 433, 434, 435, 436, 437, 438, 439, 440, 441
 442, 443, 444, 445, 446, 447, 448, 449, 450, 451, 452, 453, 454, 455, 456, 457
 458, 459, 460, 461, 462, 463, 464, 465, 466, 467, 468, 469, 470, 471, 472, 473
 474, 475, 476, 477, 478, 479, 480, 481, 482, 483, 484, 485, 486, 487, 488, 489
 490, 491, 492, 493, 494, 495, 496, 497, 498, 499, 500, 501, 502, 503, 504, 505
 506, 507, 508, 509, 510, 511, 512, 513, 514, 515, 516, 517, 518, 519, 520, 521
 522, 523, 524, 525, 526, 527, 528, 529, 530, 531, 532, 533, 534, 535, 536, 537
 538, 539, 540, 541, 542, 543, 544, 545, 546, 547, 548, 549, 550, 551, 552, 553
 554, 555, 556, 557, 558, 559, 560, 561, 562, 563, 564, 565, 566, 567, 568, 569
 570, 571, 572, 573, 574, 575, 576, 577, 578
*Elset, elset=_PickedSet7, internal, instance=Part-1-1
  172,  349,  350,  373,  431,  929,  946,  948,  958,  959,  976,  989, 1014, 1041, 1042, 1044
 1067, 1105, 1127, 1128, 1134, 1140, 1144, 1147, 1148, 1181, 1194, 1196, 1203, 1244, 1253, 1258
 1273, 1283, 1319, 1321, 2764, 4071, 4079, 4248, 4273, 4280, 4281, 4289, 4458, 4524, 4525, 4526
 4527, 4528, 4530, 4531, 4532, 4536, 4540, 4541, 4542, 4544, 4545, 4546, 4550, 4554, 4555, 4556
 4559, 4560, 4564, 4568, 4569, 4570, 4573, 4574, 4578, 4580, 4582, 4583, 4584, 4587, 4588, 4593
 4594, 4595, 4597, 4598, 4599, 4603, 4607, 4608, 4609, 4612, 4613, 4617, 4621, 4622, 4623, 4626
 4627, 4631, 4633, 4635, 4636, 4637, 4640, 4641, 4645, 4647, 4649, 4650, 4651, 4654, 4655, 4776
 4814, 4828, 4830, 4978, 4982, 4993, 5000, 5001, 5004, 5008, 5011, 5015, 5016, 5018, 5019, 5026
 5027, 5032, 5036, 5041, 5044, 5047, 5050, 5052, 5055, 5058, 5059, 5060, 5062, 5063, 5066, 5068
 5070, 5074, 5075, 5078, 5084, 5088, 5244, 5246, 5248, 5250, 5251, 5254, 5256, 5262, 5263, 5265
 5268, 5566, 5574, 5576, 5594, 5602, 5604, 5616, 5622, 5624, 5630, 5632, 5644, 5650, 5652, 5658
 5670, 5672, 5678, 5680, 5682, 5700, 5708, 5710, 5722, 5728, 5730, 5736, 5738, 5750, 5756, 5758
 5764, 5776, 5778, 5784, 5786, 5792, 5804, 5806
*Nset, nset=_PickedSet8, internal, instance=Part-1-1
   5,   6, 579, 580, 581, 582, 583, 584, 585, 586, 587, 588, 589, 590, 591, 592
 593, 594, 595, 596, 597, 598, 599, 600, 601, 602, 603, 604, 605, 606, 607, 608
 609, 610, 611, 612, 613, 614, 615, 616, 617, 618, 619, 620, 621, 622, 623, 624
 625, 626, 627, 628, 629, 630, 631, 632, 633, 634, 635, 636, 637, 638, 639, 640
 641, 642, 643, 644, 645, 646, 647, 648, 649, 650, 651, 652, 653, 654, 655, 656
 657, 658, 659, 660, 661, 662, 663, 664, 665, 666, 667, 668, 669, 670, 671, 672
 673, 674, 675, 676, 677
*Elset, elset=_PickedSet8, internal, instance=Part-1-1
   22,   47,  122,  124,  203,  244, 1306, 1308, 1309, 1348, 1392, 1393, 1435, 1449, 1466, 1472
 1476, 1529, 1550, 1743, 4524, 4657, 4659, 4661, 4663, 4664, 4665, 4668, 4669, 4674, 4678, 4679
 4680, 4683, 4684, 4688, 4692, 4694, 4696, 4697, 4698, 4701, 4702, 4707, 4711, 4712, 4713, 4716
 4717, 4721, 4738, 4740, 4745, 4756, 4758, 4768, 4774, 4787, 5081, 5090, 5092, 5093, 5096, 5098
 5100, 5101, 5104, 5105, 5109, 5110, 5112, 5113, 5116, 5117, 5121, 5128, 5137, 5140, 5150, 5186
 5814, 5826, 5828, 5834, 5836, 5844, 5846, 5858, 5864, 5872, 5874, 5880, 5892, 5894, 5900, 5902
 5910, 5912, 5924, 5930
*Nset, nset=_PickedSet9, internal, instance=Part-1-1
   3,   4, 281, 282, 283, 284, 285, 286, 287, 288, 289, 290, 291, 292, 293, 294
 295, 296, 297, 298, 299, 300, 301, 302, 303, 304, 305, 306, 307, 308, 309, 310
 311, 312, 313, 314, 315, 316, 317, 318, 319, 320, 321, 322, 323, 324, 325, 326
 327, 328, 329, 330, 331, 332, 333, 334, 335, 336, 337, 338, 339, 340, 341, 342
 343, 344, 345, 346, 347, 348, 349, 350, 351, 352, 353, 354, 355, 356, 357, 358
 359, 360, 361, 362, 363, 364, 365, 366, 367, 368, 369, 370, 371, 372, 373, 374
 375, 376, 377, 378, 379
*Elset, elset=_PickedSet9, internal, instance=Part-1-1
  418,  572,  602,  668,  670,  701,  704,  781,  825,  839,  867,  887,  891,  919,  955, 1527
 3386, 3424, 4234, 4446, 4458, 4460, 4462, 4464, 4465, 4466, 4469, 4470, 4475, 4479, 4480, 4481
 4484, 4485, 4489, 4493, 4495, 4497, 4498, 4499, 4502, 4503, 4508, 4512, 4513, 4514, 4517, 4518
 4522, 4824, 4826, 4866, 4867, 4886, 4888, 4908, 4914, 4920, 4953, 4956, 4960, 4962, 4964, 4966
 4968, 4970, 4971, 4976, 4983, 4987, 4988, 5232, 5233, 5236, 5238, 5239, 5240, 5258, 5273, 5274
 5428, 5440, 5442, 5448, 5450, 5458, 5460, 5472, 5478, 5486, 5488, 5494, 5506, 5508, 5514, 5516
 5524, 5526, 5538, 5544
*End Assembly
** 
** MATERIALS
** 
*Material, name=Material-1
*Conductivity
1.,
** ----------------------------------------------------------------
** 
** STEP: Step-1
** 
*Step, name=Step-1
*Heat Transfer, end=PERIOD, deltmx=0.1
1., 1., 1e-05, 1., 
** 
** BOUNDARY CONDITIONS
** 
** Name: BOTTOM Type: Temperature
*Boundary
_PickedSet6, 11, 11
** Name: LEFT Type: Temperature
*Boundary
_PickedSet8, 11, 11
** Name: RIGHT Type: Temperature
*Boundary
_PickedSet9, 11, 11
** Name: TOP Type: Temperature
*Boundary
_PickedSet7, 11, 11
** 
** OUTPUT REQUESTS
** 
*Restart, write, frequency=0
** 
** FIELD OUTPUT: F-Output-1
** 
*Output, field, variable=PRESELECT
*Output, history, frequency=0
*End Step
