*HEADING
ABAQUS job created on 25-Oct-12 at 19:21:26
** seed size = 0.0055
*#node, 233
*#element, 410
**
*NODE
  1,  0.100000001, 0.0199999996
      2,           0., 0.0299999993
      3,           0.,           0.
      4,  0.100000001,           0.
      5,  0.100000001, 0.0500000007
      6,           0., 0.0500000007
      7,  0.098444663, 0.0219317824
      8, 0.0968347415, 0.0238188282
      9, 0.0951620787, 0.0256501082
     10, 0.0934152678, 0.0274116863
     11, 0.0915815681, 0.0290817954
     12, 0.0896439403, 0.0306295007
     13, 0.0875817165, 0.0320070982
     14, 0.0853752568, 0.0331376679
     15, 0.0830194429,  0.033900287
     16, 0.0805558711, 0.0341293328
     17,  0.078124404, 0.0336815268
     18, 0.0759123191, 0.0325749069
     19, 0.0740152448, 0.0309832543
     20, 0.0724188238,  0.029088309
** ... 969 like lines cut
**
*ELEMENT, TYPE=DS3 , ELSET=MATERIAL1_PROPERTIES
 1, 176,  18,  19
  2, 354, 178, 276
  3, 178,  18, 176
  4, 178,  17,  18
  5, 181,  13,  14
  6, 179,  15,  16
  7, 180, 176,  19
  8, 223,  13, 181
  9, 358, 281, 283
 10, 235, 108, 234
 11, 430, 422, 366
 12, 187, 186,  25
 13, 243, 100, 242
 14, 245,  98, 244
 15, 248,  95, 247
 16, 191, 190,  29
 17, 264,  79, 263
 18, 267,  76, 266
 19, 193, 192,  54
 20, 231,  67, 230
** ... 1836 like lines cut
**
** Material1_Properties
**
*SHELL SECTION, ELSET=MATERIAL1_PROPERTIES, MATERIAL=MATERIAL1
       0.001,       5
**
** Material1
** Date: 25-Oct-12           Time: 18:13:37
**
*MATERIAL, NAME=MATERIAL1
**
*DENSITY
       7860.,
**
*CONDUCTIVITY, TYPE=ISO
         0.6,
**
*SPECIFIC HEAT
        450.,
**
** Step  1, Default Heat Transfer Step
** LoadCase, Default
**
*STEP, AMPLITUDE=RAMP, INC=10
Steady State Heat Transfer
**
This load case is the default load case that always appears
*HEAT TRANSFER, STEADY STATE
         0.1,          1.
**
*NSET, NSET=TOP_EDGE
   5,   6, 130, 131, 132, 133, 134, 135, 136, 137, 138, 139, 140, 141, 142, 143
 144, 145, 146, 147, 148, 149, 150, 151, 152, 153, 154, 155, 156, 157, 158, 159
 160, 161, 162, 163, 164, 165, 166, 167, 168
*NSET, NSET=INLET
2
*ELSET, ELSET=BOTTOM_EDGE_S1
69
*ELSET, ELSET=BOTTOM_EDGE_S2
  72, 231, 234, 236, 238, 240, 242, 244, 246, 248, 250, 252, 254, 256, 258, 260
 262, 264, 266, 268, 270, 272, 274, 276, 278, 280, 282, 284, 286, 288, 290, 292
 294, 296, 298, 300, 301, 449
*ELSET, ELSET=BOTTOM_EDGE_S3
58
*ELSET, ELSET=HEATSOURCE1, GENERATE
       1,     1856,       1
*ELSET, ELSET=REGION1, GENERATE
  927,  1856,     1
*ELSET, ELSET=REGION2, GENERATE
   1,  926,    1
**
** Top_Temperature
**
*BOUNDARY, OP=NEW
TOP_EDGE, 11, 11, 	  20.
**
** Inlet
**
*BOUNDARY, OP=NEW
INLET, 11, 11, 	  20.
** HeatFlux_bottom
**
*DFLUX, OP=NEW
BOTTOM_EDGE_S1, S1,   2000.
**
*DFLUX, OP=NEW
BOTTOM_EDGE_S2, S2,   2000.
**
*DFLUX, OP=NEW
BOTTOM_EDGE_S3, S3,   2000.
**
** HeatSource1
**
*DFLUX, OP=NEW
HEATSOURCE1, BF,         0.
**
*FILM, OP=NEW
*CFLUX, OP=NEW
**
*NODE PRINT, FREQ=1
NT,
**
*EL PRINT, POS=INTEG, FREQ=0
**
*EL PRINT, POS=NODES, FREQ=0
**
*EL PRINT, POS=CENTR, FREQ=0
**
*EL PRINT, POS=AVERAGE, FREQ=0
**
*MODAL PRINT, FREQ=99999
**
*PRINT, FREQ=1
** NODE OUTPUT REQUESTS
**
*OUTPUT, FIELD, FREQ=1
*NODE OUTPUT
NT,
**
** ELEMENT OUTPUT REQUESTS
** NONE
** MODAL OUTPUT REQUESTS
** NONE
**
*END STEP
