*HEADING
ABAQUS job created on 25-Oct-12 at 19:21:26
** seed size = 0.0055
*#node, 233
*#element, 410
**
*NODE
   1, 0.0890000015, 0.0254999995
      2, 0.0109999999, 0.0254999995
      3,  0.100000001, 0.0199999996
      4,  0.100000001, 0.0500000007
      5,           0., 0.0500000007
      6,           0., 0.0299999993
      7,           0.,           0.
      8,  0.100000001,           0.
      9, 0.0858440101, 0.0294140875
     10, 0.0825114474, 0.0331788771
     11, 0.0789463371, 0.0367227979
     12, 0.0750608668,  0.039909374
     13,  0.070723474, 0.0424353033
     14, 0.0658573508, 0.0435525924
     15, 0.0611177124, 0.0421056375
     16, 0.0571053773, 0.0390837826
     17, 0.0524918437, 0.0371466614
     18, 0.0475035049, 0.0371476784
     19, 0.0428908318, 0.0390861407
     20, 0.0388790146, 0.0421078056
** ... 236 like lines cut
**
*ELEMENT, TYPE=DS3 , ELSET=MATERIAL1_PROPERTIES
  1,  42,   9,  41
 2,  10,  41,   9
 3,  11,  41,  10
 4, 131,  11,  12
 5, 132,  15,  16
 6, 142,  18, 137
 7, 134,  35,  36
 8, 134,  17, 133
 9, 135, 131,  12
10, 135,  39, 131
11, 134, 132,  16
12, 136,  15, 132
13, 136,  14,  15
14, 137,  32,  33
15,  28,  24,  25
16,  28,  25,  26
17,  27,  26,   2
18,  24,  28,  29
19, 140,  20,  21
20, 139,  24,  29
** ... 432 like lines cut
**
** Material1_Properties
**
*SHELL SECTION, ELSET=MATERIAL1_PROPERTIES, MATERIAL=MATERIAL1
       0.001,       5
**
** Material1
** Date: 25-Oct-12           Time: 18:13:37
**
*MATERIAL, NAME=MATERIAL1
**
*DENSITY
       7860.,
**
*CONDUCTIVITY, TYPE=ISO
         0.6,
**
*SPECIFIC HEAT
        450.,
**
** Step  1, Default Heat Transfer Step
** LoadCase, Default
**
*STEP, AMPLITUDE=RAMP, INC=10
Steady State Heat Transfer
**
This load case is the default load case that always appears
*HEAT TRANSFER, STEADY STATE
         0.1,          1.
**
*NSET, NSET=TOP_EDGE
    4,  5, 49, 50, 51, 52, 53, 54, 55, 56, 57, 58, 59, 60, 61, 62
 63, 64, 65, 66
*NSET, NSET=INLET
6
*ELSET, ELSET=BOTTOM_EDGE_S1
 296,  308,    6
*ELSET, ELSET=BOTTOM_EDGE_S2
 275, 300, 301, 303, 304, 306, 309, 313, 331, 357, 359, 361, 363, 366, 379
*ELSET, ELSET=BOTTOM_EDGE_S3
291
*ELSET, ELSET=HEATSOURCE1, GENERATE
       1,     452,       1
*ELSET, ELSET=REGION1, GENERATE
  59,  182,    1
*ELSET, ELSET=REGION2, GENERATE
1,  58,   1
*ELSET, ELSET=REGION3, GENERATE
 183,  266,    1
*ELSET, ELSET=REGION4, GENERATE
 395,  452,    1
*ELSET, ELSET=REGION5, GENERATE
 267,  394,    1
**
** Top_Temperature
**
*BOUNDARY, OP=NEW
TOP_EDGE, 11, 11, 	  20.
**
** Inlet
**
*BOUNDARY, OP=NEW
INLET, 11, 11, 	  20.
** HeatFlux_bottom
**
*DFLUX, OP=NEW
BOTTOM_EDGE_S1, S1,   2000.
**
*DFLUX, OP=NEW
BOTTOM_EDGE_S2, S2,   2000.
**
*DFLUX, OP=NEW
BOTTOM_EDGE_S3, S3,   2000.
**
** HeatSource1
**
*DFLUX, OP=NEW
HEATSOURCE1, BF,         0.
**
*FILM, OP=NEW
*CFLUX, OP=NEW
**
*NODE PRINT, FREQ=1
NT,
**
*EL PRINT, POS=INTEG, FREQ=0
**
*EL PRINT, POS=NODES, FREQ=0
**
*EL PRINT, POS=CENTR, FREQ=0
**
*EL PRINT, POS=AVERAGE, FREQ=0
**
*MODAL PRINT, FREQ=99999
**
*PRINT, FREQ=1
** NODE OUTPUT REQUESTS
**
*OUTPUT, FIELD, FREQ=1
*NODE OUTPUT
NT,
**
** ELEMENT OUTPUT REQUESTS
** NONE
** MODAL OUTPUT REQUESTS
** NONE
**
*END STEP
