*HEADING
ABAQUS job created on 25-Oct-12 at 19:21:26
** seed size = 0.0055
*#node, 233
*#element, 410
**
*NODE
 1, 0.0890000015, 0.0254999995
      2, 0.0109999999, 0.0254999995
      3,  0.100000001, 0.0199999996
      4,  0.100000001, 0.0500000007
      5,           0., 0.0500000007
      6,           0., 0.0299999993
      7,           0.,           0.
      8,  0.100000001,           0.
      9, 0.0856638923, 0.0296276808
     10, 0.0821279436, 0.0335854329
     11, 0.0783235803,  0.037284337
     12, 0.0741408542,  0.040544644
     13, 0.0694193766, 0.0429368876
     14, 0.0641907305, 0.0433880799
     15, 0.0595835298, 0.0408931784
     16, 0.0551351346, 0.0380286761
     17, 0.0499962047, 0.0368750058
     18, 0.0448577181, 0.0380318873
     19, 0.0404113308, 0.0408974886
     20, 0.0358043388, 0.0433890596
** ... 218 like lines cut
**
*ELEMENT, TYPE=DS3 , ELSET=MATERIAL1_PROPERTIES
 1,   1,   9,  40
 2,  10,  40,   9
 3,  11,  39,  10
 4, 128,  11,  12
 5, 131, 129,  17
 6, 130,  15,  16
 7, 134, 131,  18
 8, 131,  33, 129
 9, 129,  33,  34
10, 132, 128,  12
11, 132,  36,  37
12, 133,  15, 130
13, 133, 132,  13
14, 130,  16, 129
15, 131,  31,  32
16, 134,  18,  19
17, 134,  31, 131
18,  27,  23,  24
19,  26,  24,  25
20,  26,  25,   2
** ... 396 like lines cut
**
** Material1_Properties
**
*SHELL SECTION, ELSET=MATERIAL1_PROPERTIES, MATERIAL=MATERIAL1
       0.001,       5
**
** Material1
** Date: 25-Oct-12           Time: 18:13:37
**
*MATERIAL, NAME=MATERIAL1
**
*DENSITY
       7860.,
**
*CONDUCTIVITY, TYPE=ISO
         0.6,
**
*SPECIFIC HEAT
        450.,
**
** Step  1, Default Heat Transfer Step
** LoadCase, Default
**
*STEP, AMPLITUDE=RAMP, INC=10
Steady State Heat Transfer
**
This load case is the default load case that always appears
*HEAT TRANSFER, STEADY STATE
         0.1,          1.
**
*NSET, NSET=TOP_EDGE
4,  5, 47, 48, 49, 50, 51, 52, 53, 54, 55, 56, 57, 58, 59, 60
 61, 62, 63, 64
*NSET, NSET=INLET
6
*ELSET, ELSET=BOTTOM_EDGE_S1
267,  279,    6
*ELSET, ELSET=BOTTOM_EDGE_S2
  246, 271, 272, 274, 275, 277, 280, 284, 302, 328, 330, 332, 334, 337, 350
*ELSET, ELSET=BOTTOM_EDGE_S3
 262
*ELSET, ELSET=HEATSOURCE1, GENERATE
       1,     416,       1
*ELSET, ELSET=REGION1, GENERATE
53,  165,    1
*ELSET, ELSET=REGION2, GENERATE
1,  52,   1
*ELSET, ELSET=REGION3, GENERATE
166,  237,    1
*ELSET, ELSET=REGION4, GENERATE
366,  416,    1
*ELSET, ELSET=REGION5, GENERATE
238,  365,    1
**
** Top_Temperature
**
*BOUNDARY, OP=NEW
TOP_EDGE, 11, 11, 	  20.
**
** Inlet
**
*BOUNDARY, OP=NEW
INLET, 11, 11, 	  20.
** HeatFlux_bottom
**
*DFLUX, OP=NEW
BOTTOM_EDGE_S1, S1,   2000.
**
*DFLUX, OP=NEW
BOTTOM_EDGE_S2, S2,   2000.
**
*DFLUX, OP=NEW
BOTTOM_EDGE_S3, S3,   2000.
**
** HeatSource1
**
*DFLUX, OP=NEW
HEATSOURCE1, BF,         0.
**
*FILM, OP=NEW
*CFLUX, OP=NEW
**
*NODE PRINT, FREQ=1
NT,
**
*EL PRINT, POS=INTEG, FREQ=0
**
*EL PRINT, POS=NODES, FREQ=0
**
*EL PRINT, POS=CENTR, FREQ=0
**
*EL PRINT, POS=AVERAGE, FREQ=0
**
*MODAL PRINT, FREQ=99999
**
*PRINT, FREQ=1
** NODE OUTPUT REQUESTS
**
*OUTPUT, FIELD, FREQ=1
*NODE OUTPUT
NT,
**
** ELEMENT OUTPUT REQUESTS
** NONE
** MODAL OUTPUT REQUESTS
** NONE
**
*END STEP
