*HEADING
ABAQUS job created on 25-Oct-12 at 19:21:26
** seed size = 0.0055
*#node, 233
*#element, 410
**
*NODE
   1,  0.100000001, 0.0199999996
      2,           0., 0.0299999993
      3,           0.,           0.
      4,  0.100000001,           0.
      5,  0.100000001, 0.0500000007
      6,           0., 0.0500000007
      7, 0.0960464776, 0.0292550623
      8, 0.0913346335,  0.038142547
      9, 0.0847338215, 0.0456291325
     10, 0.0762932524, 0.0428201929
     11, 0.0722542331, 0.0336370692
     12, 0.0697532594, 0.0238911882
     13, 0.0672320798, 0.0141489264
     14, 0.0633981824, 0.00487709325
     15, 0.0560251474, 0.00584437326
     16, 0.0524461567, 0.0152312815
     17, 0.0500015281, 0.0249930471
     18,   0.04755776,  0.034755256
     19, 0.0439826027, 0.0441415906
     20, 0.0366105512, 0.0451363958
** ... 57 like lines cut
**
*ELEMENT, TYPE=DS3 , ELSET=MATERIAL1_PROPERTIES
 1, 58, 11, 12
 2, 52,  9, 10
 3, 57,  8, 52
 4, 62, 61, 53
 5, 63, 38, 53
 6, 54, 14, 36
 7, 35, 14, 15
 8, 55, 15, 16
 9, 55, 33, 34
10, 59, 23, 56
11, 60, 17, 18
12, 60, 59, 17
13, 21, 18, 19
14, 20, 21, 19
15, 60, 21, 22
16, 56, 24, 32
17, 31, 24, 25
18, 26, 30, 25
19, 29, 30, 26
20, 29, 26, 27
** ... 102 like lines cut
**
** Material1_Properties
**
*SHELL SECTION, ELSET=MATERIAL1_PROPERTIES, MATERIAL=MATERIAL1
       0.001,       5
**
** Material1
** Date: 25-Oct-12           Time: 18:13:37
**
*MATERIAL, NAME=MATERIAL1
**
*DENSITY
       7860.,
**
*CONDUCTIVITY, TYPE=ISO
         0.6,
**
*SPECIFIC HEAT
        450.,
**
** Step  1, Default Heat Transfer Step
** LoadCase, Default
**
*STEP, AMPLITUDE=RAMP, INC=10
Steady State Heat Transfer
**
This load case is the default load case that always appears
*HEAT TRANSFER, STEADY STATE
         0.1,          1.
**
*NSET, NSET=TOP_EDGE
 5,  6, 42, 43, 44, 45, 46, 47, 48, 49, 50
*NSET, NSET=INLET
2
*ELSET, ELSET=BOTTOM_EDGE_S1
  26, 30, 33, 34
*ELSET, ELSET=BOTTOM_EDGE_S2
  9, 24, 28, 29, 32, 58
*ELSET, ELSET=HEATSOURCE1, GENERATE
       1,     122,       1
*ELSET, ELSET=REGION1, GENERATE
    62,  122,    1
*ELSET, ELSET=REGION2, GENERATE
  1,  61,   1
**
** Top_Temperature
**
*BOUNDARY, OP=NEW
TOP_EDGE, 11, 11, 	  20.
**
** Inlet
**
*BOUNDARY, OP=NEW
INLET, 11, 11, 	  20.
** HeatFlux_bottom
**
*DFLUX, OP=NEW
BOTTOM_EDGE_S1, S1,   2000.
**
*DFLUX, OP=NEW
BOTTOM_EDGE_S2, S2,   2000.
**
** HeatSource1
**
*DFLUX, OP=NEW
HEATSOURCE1, BF,         0.
**
*FILM, OP=NEW
*CFLUX, OP=NEW
**
*NODE PRINT, FREQ=1
NT,
**
*EL PRINT, POS=INTEG, FREQ=0
**
*EL PRINT, POS=NODES, FREQ=0
**
*EL PRINT, POS=CENTR, FREQ=0
**
*EL PRINT, POS=AVERAGE, FREQ=0
**
*MODAL PRINT, FREQ=99999
**
*PRINT, FREQ=1
** NODE OUTPUT REQUESTS
**
*OUTPUT, FIELD, FREQ=1
*NODE OUTPUT
NT,
**
** ELEMENT OUTPUT REQUESTS
** NONE
** MODAL OUTPUT REQUESTS
** NONE
**
*END STEP
