*HEADING
ABAQUS job created on 25-Oct-12 at 19:21:26
** seed size = 0.0055
*#node, 233
*#element, 410
**
*NODE
   1,  0.100000001, 0.0199999996
      2,           0., 0.0299999993
      3,           0.,           0.
      4,  0.100000001,           0.
      5,  0.100000001, 0.0500000007
      6,           0., 0.0500000007
      7, 0.0967131034, 0.0239565521
      8, 0.0931501985, 0.0276647899
      9, 0.0891983807, 0.0309516471
     10, 0.0846953765, 0.0334076099
     11,  0.079644531, 0.0340465605
     12, 0.0750323981, 0.0319178551
     13, 0.0716935098, 0.0280314423
     14, 0.0692447871, 0.0235102754
     15, 0.0665428191, 0.0191378668
     16, 0.0628627166, 0.0155900018
     17, 0.0579369776, 0.0151862456
     18,   0.05400851, 0.0184295401
     19, 0.0511823408, 0.0227194894
     20, 0.0488147624, 0.0272857491
** ... 220 like lines cut
**
*ELEMENT, TYPE=DS3 , ELSET=MATERIAL1_PROPERTIES
 1,  85,  11,  12
  2,  85,  10,  11
  3,  87,  12,  13
  4,  87,  85,  12
  5, 150, 129, 127
  6, 109,  54, 108
  7, 135, 111, 110
  8,  91,  16,  17
  9, 153, 122, 140
 10, 153, 148, 123
 11,  94,  93,  30
 12, 107,  35,  36
 13,  33,  32,   2
 14, 116,  47, 115
 15,  96,  95,  18
 16, 136, 121, 120
 17, 142, 137, 116
 18, 138, 117, 137
 19, 152, 138, 137
 20, 101, 100,  20
** ... 400 like lines cut
**
** Material1_Properties
**
*SHELL SECTION, ELSET=MATERIAL1_PROPERTIES, MATERIAL=MATERIAL1
       0.001,       5
**
** Material1
** Date: 25-Oct-12           Time: 18:13:37
**
*MATERIAL, NAME=MATERIAL1
**
*DENSITY
       7860.,
**
*CONDUCTIVITY, TYPE=ISO
         0.6,
**
*SPECIFIC HEAT
        450.,
**
** Step  1, Default Heat Transfer Step
** LoadCase, Default
**
*STEP, AMPLITUDE=RAMP, INC=10
Steady State Heat Transfer
**
This load case is the default load case that always appears
*HEAT TRANSFER, STEADY STATE
         0.1,          1.
**
*NSET, NSET=TOP_EDGE
  5,  6, 64, 65, 66, 67, 68, 69, 70, 71, 72, 73, 74, 75, 76, 77
 78, 79, 80, 81
*NSET, NSET=INLET
2
*ELSET, ELSET=BOTTOM_EDGE_S1
34
*ELSET, ELSET=BOTTOM_EDGE_S2
   40,  98, 101, 104, 106, 108, 109, 113, 116, 118, 120, 122, 124, 125, 128, 129
 132
*ELSET, ELSET=BOTTOM_EDGE_S3
 29
*ELSET, ELSET=HEATSOURCE1, GENERATE
       1,     420,       1
*ELSET, ELSET=REGION1, GENERATE
 211,  420,    1
*ELSET, ELSET=REGION2, GENERATE
1,  210,    1
**
** Top_Temperature
**
*BOUNDARY, OP=NEW
TOP_EDGE, 11, 11, 	  20.
**
** Inlet
**
*BOUNDARY, OP=NEW
INLET, 11, 11, 	  20.
** HeatFlux_bottom
**
*DFLUX, OP=NEW
BOTTOM_EDGE_S1, S1,   2000.
**
*DFLUX, OP=NEW
BOTTOM_EDGE_S2, S2,   2000.
**
*DFLUX, OP=NEW
BOTTOM_EDGE_S3, S3,   2000.
**
** HeatSource1
**
*DFLUX, OP=NEW
HEATSOURCE1, BF,         0.
**
*FILM, OP=NEW
*CFLUX, OP=NEW
**
*NODE PRINT, FREQ=1
NT,
**
*EL PRINT, POS=INTEG, FREQ=0
**
*EL PRINT, POS=NODES, FREQ=0
**
*EL PRINT, POS=CENTR, FREQ=0
**
*EL PRINT, POS=AVERAGE, FREQ=0
**
*MODAL PRINT, FREQ=99999
**
*PRINT, FREQ=1
** NODE OUTPUT REQUESTS
**
*OUTPUT, FIELD, FREQ=1
*NODE OUTPUT
NT,
**
** ELEMENT OUTPUT REQUESTS
** NONE
** MODAL OUTPUT REQUESTS
** NONE
**
*END STEP
