*HEADING
ABAQUS job created on 25-Oct-12 at 19:21:26
** seed size = 0.0055
*#node, 233
*#element, 410
**
*NODE
   1,  0.100000001, 0.0199999996
      2,           0., 0.0299999993
      3,           0.,           0.
      4,  0.100000001,           0.
      5,  0.100000001, 0.0500000007
      6,           0., 0.0500000007
      7, 0.0968347639,  0.023818804
      8, 0.0934154466, 0.0274115149
      9, 0.0896445215, 0.0306290761
     10, 0.0853770822, 0.0331368931
     11,  0.080557473, 0.0341293961
     12, 0.0759139955, 0.0325760357
     13, 0.0724202618, 0.0290902797
     14, 0.0699112266, 0.0248188246
     15, 0.0674863979, 0.0204947367
     16, 0.0643385276, 0.0166793428
     17, 0.0598977171,  0.014751072
     18, 0.0555090606, 0.0168172754
     19, 0.0524022467, 0.0206668992
     20, 0.0499986671, 0.0250027347
** ... 243 like lines cut
**
*ELEMENT, TYPE=DS3 , ELSET=MATERIAL1_PROPERTIES
 1,  88,  11,  12
  2,  88,  10,  11
  3,  90,  12,  13
  4,  90,  88,  12
  5, 159, 131, 136
  6, 113,  56, 112
  7, 174, 141, 118
  8,  94,  50,  51
  9, 144, 120, 119
 10, 145, 128, 127
 11, 145, 143, 128
 12,  98,  97,  31
 13, 111,  36,  37
 14,  34,  33,   2
 15,  99,  18,  19
 16, 146, 121, 140
 17, 154, 150, 124
 18, 170, 164, 146
 19, 137, 103, 133
 20, 105,  21,  22
** ... 444 like lines cut
**
** Material1_Properties
**
*SHELL SECTION, ELSET=MATERIAL1_PROPERTIES, MATERIAL=MATERIAL1
       0.001,       5
**
** Material1
** Date: 25-Oct-12           Time: 18:13:37
**
*MATERIAL, NAME=MATERIAL1
**
*DENSITY
       7860.,
**
*CONDUCTIVITY, TYPE=ISO
         0.6,
**
*SPECIFIC HEAT
        450.,
**
** Step  1, Default Heat Transfer Step
** LoadCase, Default
**
*STEP, AMPLITUDE=RAMP, INC=10
Steady State Heat Transfer
**
This load case is the default load case that always appears
*HEAT TRANSFER, STEADY STATE
         0.1,          1.
**
*NSET, NSET=TOP_EDGE
 5,  6, 66, 67, 68, 69, 70, 71, 72, 73, 74, 75, 76, 77, 78, 79
 80, 81, 82, 83, 84
*NSET, NSET=INLET
2
*ELSET, ELSET=BOTTOM_EDGE_S2
   8,  30,  36,  69, 105, 108, 110, 112, 114, 119, 122, 124, 126, 128, 130, 131
 134, 135, 138, 159
*ELSET, ELSET=HEATSOURCE1, GENERATE
       1,     464,       1
*ELSET, ELSET=REGION1, GENERATE
  233,  464,    1
*ELSET, ELSET=REGION2, GENERATE
 1,  232,    1
**
** Top_Temperature
**
*BOUNDARY, OP=NEW
TOP_EDGE, 11, 11, 	  20.
**
** Inlet
**
*BOUNDARY, OP=NEW
INLET, 11, 11, 	  20.
** HeatFlux_bottom
**
*DFLUX, OP=NEW
BOTTOM_EDGE_S2, S2,   2000.
**
** HeatSource1
**
*DFLUX, OP=NEW
HEATSOURCE1, BF,         0.
**
*FILM, OP=NEW
*CFLUX, OP=NEW
**
*NODE PRINT, FREQ=1
NT,
**
*EL PRINT, POS=INTEG, FREQ=0
**
*EL PRINT, POS=NODES, FREQ=0
**
*EL PRINT, POS=CENTR, FREQ=0
**
*EL PRINT, POS=AVERAGE, FREQ=0
**
*MODAL PRINT, FREQ=99999
**
*PRINT, FREQ=1
** NODE OUTPUT REQUESTS
**
*OUTPUT, FIELD, FREQ=1
*NODE OUTPUT
NT,
**
** ELEMENT OUTPUT REQUESTS
** NONE
** MODAL OUTPUT REQUESTS
** NONE
**
*END STEP
