*HEADING
ABAQUS job created on 25-Oct-12 at 19:21:26
** seed size = 0.0055
*#node, 233
*#element, 410
**
*NODE
      1, 0.0890000015, 0.0254999995
      2, 0.0109999999, 0.0254999995
      3,  0.100000001, 0.0199999996
      4,  0.100000001, 0.0500000007
      5,           0., 0.0500000007
      6,           0., 0.0299999993
      7,           0.,           0.
      8,  0.100000001,           0.
      9, 0.0886162743, 0.0259925835
     10, 0.0882303193,  0.026483519
     11, 0.0878419727, 0.0269728526
     12, 0.0874510333, 0.0274606757
     13, 0.0870581567, 0.0279460251
     14, 0.0866627917, 0.0284294095
     15, 0.0862648562, 0.0289107673
     16,  0.085864231, 0.0293900426
     17, 0.0854608044, 0.0298671778
     18, 0.0850544348, 0.0303421225
     19, 0.0846449733, 0.0308148321
     20, 0.0842336789, 0.0312836431
** ... 13693 like lines cut
**
*ELEMENT, TYPE=DS3 , ELSET=MATERIAL1_PROPERTIES
 1,   10,  293,    9
   2,  292,   10,   11
   3,  290,   11,   12
   4, 1646, 1410,   13
   5, 1437, 1435,  286
   6,   13,   14, 1093
   7, 1569, 1094, 1437
   8, 1435, 1431,  285
   9, 1569, 1437, 1440
  10, 1437, 1094, 1435
  11, 1595,   17,   18
  12, 2524, 1096, 1707
  13, 1599, 1504, 1512
  14, 1645, 1099, 1538
  15, 1664, 1103, 1594
  16, 1642, 1137, 1552
  17, 1640, 1183, 1582
  18, 1701, 1227, 1564
  19, 2492, 1730, 1709
  20, 1783,   41,   42
** ... 26924 like lines cut
**
** Material1_Properties
**
*SHELL SECTION, ELSET=MATERIAL1_PROPERTIES, MATERIAL=MATERIAL1
       0.001,       5
**
** Material1
** Date: 25-Oct-12           Time: 18:13:37
**
*MATERIAL, NAME=MATERIAL1
**
*DENSITY
       7860.,
**
*CONDUCTIVITY, TYPE=ISO
         0.6,
**
*SPECIFIC HEAT
        450.,
**
** Step  1, Default Heat Transfer Step
** LoadCase, Default
**
*STEP, AMPLITUDE=RAMP, INC=10
Steady State Heat Transfer
**
This load case is the default load case that always appears
*HEAT TRANSFER, STEADY STATE
         0.1,          1.
**
*NSET, NSET=TOP_EDGE
   4,   5, 360, 361, 362, 363, 364, 365, 366, 367, 368, 369, 370, 371, 372, 373
 374, 375, 376, 377, 378, 379, 380, 381, 382, 383, 384, 385, 386, 387, 388, 389
 390, 391, 392, 393, 394, 395, 396, 397, 398, 399, 400, 401, 402, 403, 404, 405
 406, 407, 408, 409, 410, 411, 412, 413, 414, 415, 416, 417, 418, 419, 420, 421
 422, 423, 424, 425, 426, 427, 428, 429, 430, 431, 432, 433, 434, 435, 436, 437
 438, 439, 440, 441, 442, 443, 444, 445, 446, 447, 448, 449, 450, 451, 452, 453
 454, 455, 456, 457, 458, 459, 460, 461, 462, 463, 464, 465, 466, 467, 468, 469
 470, 471, 472, 473, 474, 475, 476, 477, 478, 479, 480, 481, 482, 483, 484, 485
 486, 487, 488, 489, 490, 491, 492, 493, 494, 495, 496, 497, 498, 499, 500, 501
 502, 503, 504, 505, 506, 507, 508, 509, 510, 511, 512, 513, 514, 515, 516, 517
 518
*NSET, NSET=INLET
6
*ELSET, ELSET=BOTTOM_EDGE_S1
17550
*ELSET, ELSET=BOTTOM_EDGE_S2
 15684, 15686, 15729, 15730, 15780, 15798, 15800, 15885, 15908, 16019, 16020, 16047, 16099, 16284, 16285, 16306
 16347, 16375, 16387, 16408, 16410, 16415, 16417, 16474, 16480, 16481, 16489, 16490, 16502, 16504, 16530, 17287
 17335, 17416, 17421, 17429, 17430, 17431, 17518, 17552, 17553, 17554, 17556, 17557, 17558, 17562, 17566, 17567
 17568, 17570, 17571, 17572, 17577, 17579, 17581, 17582, 17583, 17586, 17587, 17591, 17593, 17595, 17596, 17597
 17600, 17601, 17605, 17606, 17607, 17609, 17610, 17611, 17615, 17619, 17620, 17621, 17623, 17624, 17625, 17630
 17632, 17634, 17635, 17636, 17639, 17640, 17644, 17646, 17648, 17649, 17650, 17653, 17654, 17954, 17958, 17960
 17962, 17966, 17968, 17970, 17972, 17974, 17976, 17980, 17995, 18000, 18002, 18003, 18007, 18011, 18014, 18018
 18021, 18023, 18025, 18028, 18029, 18033, 18034, 18039, 18041, 18044, 18046, 18049, 18052, 18053, 18075, 18082
 18087, 18088, 18090, 18092, 18094, 18160, 18168, 18170, 18188, 18198, 18210, 18212, 18218, 18220, 18226, 18238
 18240, 18246, 18248, 18266, 18274, 18276, 18294, 18304, 18316, 18318, 18324, 18326, 18332, 18344, 18346
*ELSET, ELSET=HEATSOURCE1, GENERATE
       1,     26944,       1
*ELSET, ELSET=REGION1, GENERATE
 3194,  11021,      1
*ELSET, ELSET=REGION2, GENERATE
   1,  3193,     1
*ELSET, ELSET=REGION3, GENERATE
11022,  15658,      1
*ELSET, ELSET=REGION4, GENERATE
 23717,  26944,      1
*ELSET, ELSET=REGION5, GENERATE
 15659,  23716,      1
**
** Top_Temperature
**
*BOUNDARY, OP=NEW
TOP_EDGE, 11, 11, 	  20.
**
** Inlet
**
*BOUNDARY, OP=NEW
INLET, 11, 11, 	  20.
** HeatFlux_bottom
**
*DFLUX, OP=NEW
BOTTOM_EDGE_S1, S1,   2000.
**
*DFLUX, OP=NEW
BOTTOM_EDGE_S2, S2,   2000.
**
** HeatSource1
**
*DFLUX, OP=NEW
HEATSOURCE1, BF,         0.
**
*FILM, OP=NEW
*CFLUX, OP=NEW
**
*NODE PRINT, FREQ=1
NT,
**
*EL PRINT, POS=INTEG, FREQ=0
**
*EL PRINT, POS=NODES, FREQ=0
**
*EL PRINT, POS=CENTR, FREQ=0
**
*EL PRINT, POS=AVERAGE, FREQ=0
**
*MODAL PRINT, FREQ=99999
**
*PRINT, FREQ=1
** NODE OUTPUT REQUESTS
**
*OUTPUT, FIELD, FREQ=1
*NODE OUTPUT
NT,
**
** ELEMENT OUTPUT REQUESTS
** NONE
** MODAL OUTPUT REQUESTS
** NONE
**
*END STEP
