*HEADING
ABAQUS job created on 25-Oct-12 at 19:21:26
** seed size = 0.0055
*#node, 233
*#element, 410
**
*NODE
  1,  0.100000001, 0.0199999996
      2,           0., 0.0299999993
      3,           0.,           0.
      4,  0.100000001,           0.
      5,  0.100000001, 0.0500000007
      6,           0., 0.0500000007
      7, 0.0997693315,  0.020580072
      8, 0.0995369703,  0.021159621
      9, 0.0993027985, 0.0217387583
     10, 0.0990666747, 0.0223176666
     11, 0.0988290384, 0.0228951406
     12, 0.0985895172, 0.0234719142
     13, 0.0983480364, 0.0240479726
     14, 0.0981045291, 0.0246233214
     15, 0.0978588909, 0.0251979679
     16, 0.0976110399, 0.0257719383
     17, 0.0973612592, 0.0263443384
     18, 0.0971091986, 0.0269157626
     19, 0.0968547761, 0.0274861734
     20, 0.0965978876, 0.0280555338
** ... 13609 like lines cut
**
*ELEMENT, TYPE=DS3 , ELSET=MATERIAL1_PROPERTIES
    1, 3148,   68,   69
    2, 2245, 2239,   66
    3, 4161, 1169, 3952
    4, 4055, 3843, 1174
    5, 3483, 3310, 2983
    6, 3507, 2733, 3146
    7, 2866, 2685, 1171
    8, 2685,   54, 1171
    9, 2355,   55,   56
   10, 2358,   56,   57
   11, 3507, 2866, 2733
   12, 3191, 3048, 1163
   13, 4160, 3852, 1162
   14, 4698, 4527, 4572
   15, 4014, 3790, 3902
   16, 3522, 3195, 3338
   17, 3339, 3195, 1158
   18, 2865, 1156, 2359
   19, 2359,   49,   50
   20, 3043,   51,   52
** ... 26756 like lines cut
**
** Material1_Properties
**
*SHELL SECTION, ELSET=MATERIAL1_PROPERTIES, MATERIAL=MATERIAL1
       0.001,       5
**
** Material1
** Date: 25-Oct-12           Time: 18:13:37
**
*MATERIAL, NAME=MATERIAL1
**
*DENSITY
       7860.,
**
*CONDUCTIVITY, TYPE=ISO
         0.6,
**
*SPECIFIC HEAT
        450.,
**
** Step  1, Default Heat Transfer Step
** LoadCase, Default
**
*STEP, AMPLITUDE=RAMP, INC=10
Steady State Heat Transfer
**
This load case is the default load case that always appears
*HEAT TRANSFER, STEADY STATE
         0.1,          1.
**
*NSET, NSET=TOP_EDGE
   5,   6, 644, 645, 646, 647, 648, 649, 650, 651, 652, 653, 654, 655, 656, 657
 658, 659, 660, 661, 662, 663, 664, 665, 666, 667, 668, 669, 670, 671, 672, 673
 674, 675, 676, 677, 678, 679, 680, 681, 682, 683, 684, 685, 686, 687, 688, 689
 690, 691, 692, 693, 694, 695, 696, 697, 698, 699, 700, 701, 702, 703, 704, 705
 706, 707, 708, 709, 710, 711, 712, 713, 714, 715, 716, 717, 718, 719, 720, 721
 722, 723, 724, 725, 726, 727, 728, 729, 730, 731, 732, 733, 734, 735, 736, 737
 738, 739, 740, 741, 742, 743, 744, 745, 746, 747, 748, 749, 750, 751, 752, 753
 754, 755, 756, 757, 758, 759, 760, 761, 762, 763, 764, 765, 766, 767, 768, 769
 770, 771, 772, 773, 774, 775, 776, 777, 778, 779, 780, 781, 782, 783, 784, 785
 786, 787, 788, 789, 790, 791, 792, 793, 794, 795, 796, 797, 798, 799, 800, 801
 802
*NSET, NSET=INLET
2
*ELSET, ELSET=BOTTOM_EDGE_S1
 3196
*ELSET, ELSET=BOTTOM_EDGE_S2
  55,   90,  273,  306,  314,  370,  409,  778,  810,  842,  855,  867, 1022, 1024, 1047, 1050
 1056, 1060, 1061, 1065, 1066, 1067, 1099, 1123, 1127, 1130, 1131, 1134, 1166, 1177, 1178, 1201
 1203, 1212, 1214, 1215, 2297, 2303, 2342, 3164, 3198, 3199, 3200, 3202, 3203, 3204, 3208, 3212
 3213, 3214, 3216, 3217, 3218, 3223, 3225, 3227, 3228, 3229, 3232, 3233, 3237, 3239, 3241, 3242
 3243, 3246, 3247, 3251, 3252, 3253, 3255, 3256, 3257, 3261, 3265, 3266, 3267, 3269, 3270, 3271
 3276, 3278, 3280, 3281, 3282, 3285, 3286, 3290, 3292, 3294, 3295, 3296, 3299, 3300, 3730, 3732
 3734, 3736, 3737, 3740, 3742, 3744, 3746, 3750, 3752, 3774, 3778, 3780, 3781, 3783, 3791, 3792
 3795, 3797, 3800, 3802, 3803, 3805, 3808, 3810, 3812, 3815, 3823, 3824, 3827, 3829, 3832, 3834
 3838, 3841, 3845, 3846, 3866, 3868, 3872, 3928, 3936, 3938, 3956, 3966, 3978, 3980, 3986, 3988
 3994, 4006, 4014, 4016, 4034, 4042, 4044, 4062, 4072, 4084, 4086, 4092, 4094, 4100, 4112
*ELSET, ELSET=HEATSOURCE1, GENERATE
       1,     26776,       1
*ELSET, ELSET=REGION1, GENERATE
   13393,  26776,      1
*ELSET, ELSET=REGION2, GENERATE
   1,  13392,      1
**
** Top_Temperature
**
*BOUNDARY, OP=NEW
TOP_EDGE, 11, 11, 	  20.
**
** Inlet
**
*BOUNDARY, OP=NEW
INLET, 11, 11, 	  20.
** HeatFlux_bottom
**
*DFLUX, OP=NEW
BOTTOM_EDGE_S1, S1,   2000.
**
*DFLUX, OP=NEW
BOTTOM_EDGE_S2, S2,   2000.
**
** HeatSource1
**
*DFLUX, OP=NEW
HEATSOURCE1, BF,         0.
**
*FILM, OP=NEW
*CFLUX, OP=NEW
**
*NODE PRINT, FREQ=1
NT,
**
*EL PRINT, POS=INTEG, FREQ=0
**
*EL PRINT, POS=NODES, FREQ=0
**
*EL PRINT, POS=CENTR, FREQ=0
**
*EL PRINT, POS=AVERAGE, FREQ=0
**
*MODAL PRINT, FREQ=99999
**
*PRINT, FREQ=1
** NODE OUTPUT REQUESTS
**
*OUTPUT, FIELD, FREQ=1
*NODE OUTPUT
NT,
**
** ELEMENT OUTPUT REQUESTS
** NONE
** MODAL OUTPUT REQUESTS
** NONE
**
*END STEP
