*HEADING
ABAQUS job created on 25-Oct-12 at 19:21:26
** seed size = 0.0055
*#node, 233
*#element, 410
**
*NODE
   1, 0.0890000015, 0.0254999995
  2, 0.0109999999, 0.0254999995
  3,  0.100000001, 0.0199999996
  4,  0.100000001, 0.0500000007
  5,           0., 0.0500000007
  6,           0., 0.0299999993
  7,           0.,           0.
  8,  0.100000001,           0.
  9, 0.0828542858, 0.0328105576
 10, 0.0758695826, 0.0393110998
 11, 0.0673610792, 0.0434393398
 12, 0.0587582029, 0.0402308926
 13, 0.0499992259, 0.0368750058
 14, 0.0412406214, 0.0402317941
 15, 0.0326380059,  0.043439202
 16, 0.0241305567, 0.0393112041
 17, 0.0171461329, 0.0328110158
 18, 0.0201644208, 0.0304594785
 19, 0.0301568862, 0.0332950614
 20, 0.0401600599, 0.0311507639
** ... 54 like lines cut
**
*ELEMENT, TYPE=DS3 , ELSET=MATERIAL1_PROPERTIES
 1,  1,  9, 24
 2, 11, 23, 10
 3, 12, 23, 11
 4, 22, 23, 12
 5, 12, 13, 22
 6, 20, 13, 14
 7, 18, 16, 17
 8, 18, 17,  2
 9, 14, 19, 20
10, 19, 15, 16
11, 16, 18, 19
12, 15, 19, 14
13, 21, 13, 20
14, 13, 21, 22
15, 24, 10, 23
16, 10, 24,  9
17,  1,  3, 25
18, 67,  1, 25
19, 67, 27, 66
20, 68, 65, 35
** ... 96 like lines cut
**
** Material1_Properties
**
*SHELL SECTION, ELSET=MATERIAL1_PROPERTIES, MATERIAL=MATERIAL1
       0.001,       5
**
** Material1
** Date: 25-Oct-12           Time: 18:13:37
**
*MATERIAL, NAME=MATERIAL1
**
*DENSITY
       7860.,
**
*CONDUCTIVITY, TYPE=ISO
         0.6,
**
*SPECIFIC HEAT
        450.,
**
** Step  1, Default Heat Transfer Step
** LoadCase, Default
**
*STEP, AMPLITUDE=RAMP, INC=10
Steady State Heat Transfer
**
This load case is the default load case that always appears
*HEAT TRANSFER, STEADY STATE
         0.1,          1.
**
*NSET, NSET=TOP_EDGE
  4,  5, 27, 28, 29, 30, 31, 32, 33, 34, 35
*NSET, NSET=INLET
6
*ELSET, ELSET=BOTTOM_EDGE_S1
 73, 83, 87, 88, 90
*ELSET, ELSET=BOTTOM_EDGE_S2
 75, 84, 85, 86
*ELSET, ELSET=BOTTOM_EDGE_S3
81
*ELSET, ELSET=HEATSOURCE1, GENERATE
       1,     116,       1
*ELSET, ELSET=REGION1, GENERATE
  17,  49,   1
*ELSET, ELSET=REGION2, GENERATE
  1,  16,   1
*ELSET, ELSET=REGION3, GENERATE
50,  67,   1
*ELSET, ELSET=REGION4, GENERATE
  101,  116,    1
*ELSET, ELSET=REGION5, GENERATE
 68,  100,    1
**
** Top_Temperature
**
*BOUNDARY, OP=NEW
TOP_EDGE, 11, 11, 	  20.
**
** Inlet
**
*BOUNDARY, OP=NEW
INLET, 11, 11, 	  20.
** HeatFlux_bottom
**
*DFLUX, OP=NEW
BOTTOM_EDGE_S1, S1,   2000.
**
*DFLUX, OP=NEW
BOTTOM_EDGE_S2, S2,   2000.
**
*DFLUX, OP=NEW
BOTTOM_EDGE_S3, S3,   2000.
**
** HeatSource1
**
*DFLUX, OP=NEW
HEATSOURCE1, BF,         0.
**
*FILM, OP=NEW
*CFLUX, OP=NEW
**
*NODE PRINT, FREQ=1
NT,
**
*EL PRINT, POS=INTEG, FREQ=0
**
*EL PRINT, POS=NODES, FREQ=0
**
*EL PRINT, POS=CENTR, FREQ=0
**
*EL PRINT, POS=AVERAGE, FREQ=0
**
*MODAL PRINT, FREQ=99999
**
*PRINT, FREQ=1
** NODE OUTPUT REQUESTS
**
*OUTPUT, FIELD, FREQ=1
*NODE OUTPUT
NT,
**
** ELEMENT OUTPUT REQUESTS
** NONE
** MODAL OUTPUT REQUESTS
** NONE
**
*END STEP
