*HEADING
ABAQUS job created on 25-Oct-12 at 19:21:26
**
*#node, 441
*#element, 800
**
*NODE
        1,            0.,            0.
       2,         0.005,            0.
       3,          0.01,            0.
       4,         0.015,            0.
       5,          0.02,            0.
       6,         0.025,            0.
       7,          0.03,            0.
       8,         0.035,            0.
       9,          0.04,            0.
      10,         0.045,            0.
      11,          0.05,            0.
      12,         0.055,            0.
      13,          0.06,            0.
      14,         0.065,            0.
      15,          0.07,            0.
      16,         0.075,            0.
      17,          0.08,            0.
      18,         0.085,            0.
      19,          0.09,            0.
      20,         0.095,            0.
** ... 421 like lines cut
**
**
*ELEMENT, TYPE=DS3 , ELSET=MATERIAL1_PROPERTIES
   1,      23,      22,       1
       2,       1,       2,      23
       3,       2,       3,      23
       4,      24,      23,       3
       5,      25,      24,       3
       6,       3,       4,      25
       7,       4,       5,      25
       8,      26,      25,       5
       9,      27,      26,       5
      10,       5,       6,      27
      11,       6,       7,      27
      12,      28,      27,       7
      13,      29,      28,       7
      14,       7,       8,      29
      15,       8,       9,      29
      16,      30,      29,       9
      17,      31,      30,       9
      18,       9,      10,      31
      19,      10,      11,      31
      20,      32,      31,      11
** ... 780 like lines cut
**
** Material1_Properties
**
*SHELL SECTION, ELSET=MATERIAL1_PROPERTIES, MATERIAL=MATERIAL1
       0.001,       5
**
** Material1
** Date: 25-Oct-12           Time: 18:13:37
**
*MATERIAL, NAME=MATERIAL1
**
*DENSITY
       7860.,
**
*CONDUCTIVITY, TYPE=ISO
         1.,
**
*SPECIFIC HEAT
        450.,
**
** Step  1, Default Heat Transfer Step
** LoadCase, Default
**
*STEP, AMPLITUDE=RAMP, INC=10
Steady State Heat Transfer
**
This load case is the default load case that always appears
*HEAT TRANSFER, STEADY STATE
         0.1,          1.
**
*NSET, NSET=LEFT, GENERATE
   1,  421,   21
*NSET, NSET=RIGHT, GENERATE
 21,  441,   21
*NSET, NSET=BOTTOM, GENERATE
   2,  20,   1
*NSET, NSET=TOP, GENERATE
 422,  440,   1
*ELSET, ELSET=HEATSOURCE1, GENERATE
  1,    800,    1
**
**
** Left_Temperature
**
*BOUNDARY, OP=NEW
LEFT,  11, 11,     0.
**
** Right_Temperature
**
*BOUNDARY, OP=NEW
RIGHT, 11, 11, 	  0.
**
** Bottom_Temperature
**
*BOUNDARY, OP=NEW
BOTTOM,  11, 11,     0.
**
** Top_Temperature
**
*BOUNDARY, OP=NEW
TOP, 11, 11, 	  0.
**
** HeatSource1
**
*DFLUX, OP=NEW
HEATSOURCE1, BF,         0.
**
*FILM, OP=NEW
*CFLUX, OP=NEW
**
*NODE PRINT, FREQ=1
NT,
**
*EL PRINT, POS=INTEG, FREQ=0
**
*EL PRINT, POS=NODES, FREQ=0
**
*EL PRINT, POS=CENTR, FREQ=0
**
*EL PRINT, POS=AVERAGE, FREQ=0
**
*MODAL PRINT, FREQ=99999
**
*PRINT, FREQ=1
** NODE OUTPUT REQUESTS
**
*OUTPUT, FIELD, FREQ=1
*NODE OUTPUT
NT,
**
** ELEMENT OUTPUT REQUESTS
** NONE
** MODAL OUTPUT REQUESTS
** NONE
**
*END STEP
