*HEADING
ABAQUS job created on 25-Oct-12 at 19:21:26
**
*#node, 121
*#element, 200
**
*NODE
   1,           0.,           0.
      2, 0.00999999978,           0.
      3, 0.0199999996,           0.
      4, 0.0299999993,           0.
      5, 0.0399999991,           0.
      6, 0.0500000007,           0.
      7, 0.0599999987,           0.
      8, 0.0700000003,           0.
      9, 0.0799999982,           0.
     10, 0.0900000036,           0.
     11,  0.100000001,           0.
     12,           0., 0.00999999978
     13, 0.00999999978, 0.00999999978
     14, 0.0199999996, 0.00999999978
     15, 0.0299999993, 0.00999999978
     16, 0.0399999991, 0.00999999978
     17, 0.0500000007, 0.00999999978
     18, 0.0599999987, 0.00999999978
     19, 0.0700000003, 0.00999999978
     20, 0.0799999982, 0.00999999978
** ... 46 like lines cut
**
**
*ELEMENT, TYPE=DS3 , ELSET=MATERIAL1_PROPERTIES
       1,  1,  2, 13
  2, 13, 12,  1
  3,  2,  3, 14
  4, 14, 13,  2
  5,  3,  4, 15
  6, 15, 14,  3
  7,  4,  5, 16
  8, 16, 15,  4
  9,  5,  6, 17
 10, 17, 16,  5
 11,  6,  7, 18
 12, 18, 17,  6
 13,  7,  8, 19
 14, 19, 18,  7
 15,  8,  9, 20
 16, 20, 19,  8
 17,  9, 10, 21
 18, 21, 20,  9
 19, 10, 11, 22
 20, 22, 21, 10
** ... 80 like lines cut
**
** Material1_Properties
**
*SHELL SECTION, ELSET=MATERIAL1_PROPERTIES, MATERIAL=MATERIAL1
       0.001,       5
**
** Material1
** Date: 25-Oct-12           Time: 18:13:37
**
*MATERIAL, NAME=MATERIAL1
**
*DENSITY
       7860.,
**
*CONDUCTIVITY, TYPE=ISO
         0.6,
**
*SPECIFIC HEAT
        450.,
**
** Step  1, Default Heat Transfer Step
** LoadCase, Default
**
*STEP, AMPLITUDE=RAMP, INC=10
Steady State Heat Transfer
**
This load case is the default load case that always appears
*HEAT TRANSFER, STEADY STATE
         0.1,          1.
**
*NSET, NSET=TOP_TEMPERATURE, GENERATE
	   56,  66,   1
*ELSET, ELSET=HEATFLUX_BOTTOM, GENERATE
	   1,  19,   2		
*ELSET, ELSET=HEATSOURCE1, GENERATE
       1,     100,       1
**
** Top_Temperature
**
*BOUNDARY, OP=NEW
TOP_TEMPERATURE, 11, 11, 	  20.
**
** HeatFlux_bottom
**
*DFLUX, OP=NEW
HEATFLUX_BOTTOM, S1,   2000.
**
** HeatSource1
**
*DFLUX, OP=NEW
HEATSOURCE1, BF,         0.
**
*FILM, OP=NEW
*CFLUX, OP=NEW
**
*NODE PRINT, FREQ=1
NT,
**
*EL PRINT, POS=INTEG, FREQ=0
**
*EL PRINT, POS=NODES, FREQ=0
**
*EL PRINT, POS=CENTR, FREQ=0
**
*EL PRINT, POS=AVERAGE, FREQ=0
**
*MODAL PRINT, FREQ=99999
**
*PRINT, FREQ=1
** NODE OUTPUT REQUESTS
**
*OUTPUT, FIELD, FREQ=1
*NODE OUTPUT
NT,
**
** ELEMENT OUTPUT REQUESTS
** NONE
** MODAL OUTPUT REQUESTS
** NONE
**
*END STEP
