*HEADING
ABAQUS job created on 25-Oct-12 at 19:21:26
**
*#node, 121
*#element, 200
**
*NODE
 1, 0.0974999964,           0.
      2, 0.0949999988,           0.
      3, 0.0925000012,           0.
      4, 0.0900000036,           0.
      5, 0.0862499997,           0.
      6, 0.0837500021,           0.
      7,  0.081249997,           0.
      8, 0.0787499994,           0.
      9, 0.0762500018,           0.
     10, 0.0737499967,           0.
     11, 0.0712499991,           0.
     12, 0.0687500015,           0.
     13, 0.0662499964,           0.
     14, 0.0637499988,           0.
     15, 0.0599999987,           0.
     16,  0.057500001,           0.
     17, 0.0549999997,           0.
     18, 0.0524999984,           0.
     19, 0.0500000007,           0.
     20, 0.0474999994,           0.
** ... 3405 like lines cut
**
*ELEMENT, TYPE=DS3 , ELSET=MATERIAL1_PROPERTIES
 1, 1072,  824,   37
   2,  922,  887,  824
   3,  931,  888,   98
   4,  925,  100,  889
   5,  910,  101,  890
   6,  915,  102,  891
   7,  914,  103,  892
   8, 1030,  921,  338
   9, 1029,  105,  894
  10, 1128,  449, 1027
  11, 1129,  486, 1026
  12, 1130,  523, 1025
  13, 1131,  560, 1024
  14, 1132,  597, 1023
  15, 3421, 1022, 1133
  16, 1579, 1021, 1134
  17, 1174, 1020, 1135
  18, 3394, 1019, 1136
  19, 1613, 1018, 1137
  20,  923,  845,  906
** ... 6588 like lines cut
**
** Material1_Properties
**
*SHELL SECTION, ELSET=MATERIAL1_PROPERTIES, MATERIAL=MATERIAL1
       0.001,       5
**
** Material1
** Date: 25-Oct-12           Time: 18:13:37
**
*MATERIAL, NAME=MATERIAL1
**
*DENSITY
       7860.,
**
*CONDUCTIVITY, TYPE=ISO
         1.0,
**
*SPECIFIC HEAT
        450.,
**
** Step  1, Default Heat Transfer Step
** LoadCase, Default
**
*STEP, AMPLITUDE=RAMP, INC=10
Steady State Heat Transfer
**
This load case is the default load case that always appears
*HEAT TRANSFER, STEADY STATE
         0.1,          1.
**
*NSET, NSET=OUTER
1,   2,   3,   4,   5,   6,   7,   8,   9,  10,  11,  12,  13,  14,  15,  16
  17,  18,  19,  20,  21,  22,  23,  24,  25,  26,  27,  28,  29,  30,  31,  32
  33,  34,  35,  36,  37,  38,  39,  40,  41,  42,  43,  44,  45,  46,  47,  48
  49,  50,  51,  52,  53,  54,  55,  56,  57,  58,  59,  60,  61,  62,  63,  64
  65,  66,  67,  68,  69,  70,  71,  72,  73,  74,  75,  76,  77,  78,  79,  80
  81,  82,  83,  84,  85,  86,  87,  88,  89,  90,  91,  92,  93,  94,  95,  96
  97,  98,  99, 100, 101, 102, 103, 104, 105, 106, 107, 108, 109, 110, 111, 112
 113, 114, 115, 116, 783, 784, 785, 786, 787, 788, 789, 790, 791, 792, 793, 794
 795, 796, 797, 798, 799, 800, 801, 802, 803, 804, 805, 806, 807, 808, 809, 810
 811, 812, 813, 814, 815, 816, 817, 818, 819, 820, 821, 822, 823, 824, 825, 826
 827, 828, 829, 830, 831, 832, 833, 834, 835, 836, 837, 838, 839, 840, 841, 842
 843, 844, 845, 846, 847, 848, 849, 850, 851, 852, 853, 854, 855, 856, 857, 858
 859, 860, 861, 862, 863, 864, 865, 866, 867, 868, 869, 870, 871, 872, 873, 874
 875, 876, 877, 878, 879, 880, 881, 882, 883, 884, 885, 886, 887, 888, 889, 890
 891, 892, 893, 894, 895, 896, 897, 898, 899, 900, 901, 902, 903, 904, 905, 906
*ELSET, ELSET=HEATSOURCE1, GENERATE
       1,     6608,       1
**
** Temperature
**
*BOUNDARY, OP=NEW
OUTER, 11, 11, 	  20.
**
** HeatSource1
**
*DFLUX, OP=NEW
HEATSOURCE1, BF,         0.
**
*FILM, OP=NEW
*CFLUX, OP=NEW
**
*NODE PRINT, FREQ=1
NT,
**
*EL PRINT, POS=INTEG, FREQ=0
**
*EL PRINT, POS=NODES, FREQ=0
**
*EL PRINT, POS=CENTR, FREQ=0
**
*EL PRINT, POS=AVERAGE, FREQ=0
**
*MODAL PRINT, FREQ=99999
**
*PRINT, FREQ=1
** NODE OUTPUT REQUESTS
**
*OUTPUT, FIELD, FREQ=1
*NODE OUTPUT
NT,
**
** ELEMENT OUTPUT REQUESTS
** NONE
** MODAL OUTPUT REQUESTS
** NONE
**
*END STEP
