*HEADING
ABAQUS job created on 25-Oct-12 at 19:21:26
**
*#node, 121
*#element, 200
**
*NODE
 1,           0.,           0.
      2, 0.00124999997,           0.
      3, 0.00249999994,           0.
      4, 0.00374999992,           0.
      5, 0.00499999989,           0.
      6, 0.00625000009,           0.
      7, 0.00749999983,           0.
      8, 0.00875000004,           0.
      9, 0.00999999978,           0.
     10, 0.0112500004,           0.
     11, 0.0125000002,           0.
     12, 0.0137499999,           0.
     13, 0.0149999997,           0.
     14, 0.0162499994,           0.
     15, 0.0175000001,           0.
     16, 0.0187500007,           0.
     17, 0.0199999996,           0.
     18, 0.0212500002,           0.
     19, 0.0225000009,           0.
     20, 0.0237499997,           0.
** ... 3301 like lines cut
**
**
*ELEMENT, TYPE=DS3 , ELSET=MATERIAL1_PROPERTIES
    1,    1,    2,   83
   2,   83,   82,    1
   3,    2,    3,   84
   4,   84,   83,    2
   5,    3,    4,   85
   6,   85,   84,    3
   7,    4,    5,   86
   8,   86,   85,    4
   9,    5,    6,   87
  10,   87,   86,    5
  11,    6,    7,   88
  12,   88,   87,    6
  13,    7,    8,   89
  14,   89,   88,    7
  15,    8,    9,   90
  16,   90,   89,    8
  17,    9,   10,   91
  18,   91,   90,    9
  19,   10,   11,   92
  20,   92,   91,   10
** ... 6380 like lines cut
**
** Material1_Properties
**
*SHELL SECTION, ELSET=MATERIAL1_PROPERTIES, MATERIAL=MATERIAL1
       0.001,       5
**
** Material1
** Date: 25-Oct-12           Time: 18:13:37
**
*MATERIAL, NAME=MATERIAL1
**
*DENSITY
       7860.,
**
*CONDUCTIVITY, TYPE=ISO
         1.0,
**
*SPECIFIC HEAT
        450.,
**
** Step  1, Default Heat Transfer Step
** LoadCase, Default
**
*STEP, AMPLITUDE=RAMP, INC=10
Steady State Heat Transfer
**
This load case is the default load case that always appears
*HEAT TRANSFER, STEADY STATE
         0.1,          1.
**
*NSET, NSET=TOP, GENERATE
 3242,  3320,     1
*NSET, NSET=BOTTOM, GENERATE
 2,  80,     1
 *NSET, NSET=LEFT, GENERATE
 1,  3241,     81
 *NSET, NSET=RIGHT, GENERATE
 81,  3321,     81
*ELSET, ELSET=HEATSOURCE1, GENERATE
       1,     6400,       1
**
** Top
**
*BOUNDARY, OP=NEW
TOP, 11, 11, 	  20.
**
** Bottom
**
*BOUNDARY, OP=NEW
BOTTOM, 11, 11, 	20.
**
** Left
**
*BOUNDARY, OP=NEW
LEFT, 11, 11, 	  20.
**
** Right
**
*BOUNDARY, OP=NEW
RIGHT, 11, 11, 	  20.
**
** HeatSource1
**
*DFLUX, OP=NEW
HEATSOURCE1, BF,         0.
**
*FILM, OP=NEW
*CFLUX, OP=NEW
**
*NODE PRINT, FREQ=1
NT,
**
*EL PRINT, POS=INTEG, FREQ=0
**
*EL PRINT, POS=NODES, FREQ=0
**
*EL PRINT, POS=CENTR, FREQ=0
**
*EL PRINT, POS=AVERAGE, FREQ=0
**
*MODAL PRINT, FREQ=99999
**
*PRINT, FREQ=1
** NODE OUTPUT REQUESTS
**
*OUTPUT, FIELD, FREQ=1
*NODE OUTPUT
NT,
**
** ELEMENT OUTPUT REQUESTS
** NONE
** MODAL OUTPUT REQUESTS
** NONE
**
*END STEP
