*HEADING
ABAQUS job created on 25-Oct-12 at 19:21:26
**
*#node, 121
*#element, 200
**
*NODE
   1,           0.,           0.
      2, 0.00499999989,           0.
      3, 0.00999999978,           0.
      4, 0.0149999997,           0.
      5, 0.0199999996,           0.
      6, 0.0250000004,           0.
      7, 0.0299999993,           0.
      8, 0.0350000001,           0.
      9, 0.0399999991,           0.
     10, 0.0450000018,           0.
     11, 0.0500000007,           0.
     12, 0.0549999997,           0.
     13, 0.0599999987,           0.
     14, 0.0649999976,           0.
     15, 0.0700000003,           0.
     16,  0.075000003,           0.
     17, 0.0799999982,           0.
     18, 0.0850000009,           0.
     19, 0.0900000036,           0.
     20, 0.0949999988,           0.
** ... 211 like lines cut
**
**
*ELEMENT, TYPE=DS3 , ELSET=MATERIAL1_PROPERTIES
1,   1,   2,  23
  2,  23,  22,   1
  3,   2,   3,  24
  4,  24,  23,   2
  5,   3,   4,  25
  6,  25,  24,   3
  7,   4,   5,  26
  8,  26,  25,   4
  9,   5,   6,  27
 10,  27,  26,   5
 11,   6,   7,  28
 12,  28,  27,   6
 13,   7,   8,  29
 14,  29,  28,   7
 15,   8,   9,  30
 16,  30,  29,   8
 17,   9,  10,  31
 18,  31,  30,   9
 19,  10,  11,  32
 20,  32,  31,  10
** ... 380 like lines cut
**
** Material1_Properties
**
*SHELL SECTION, ELSET=MATERIAL1_PROPERTIES, MATERIAL=MATERIAL1
       0.001,       5
**
** Material1
** Date: 25-Oct-12           Time: 18:13:37
**
*MATERIAL, NAME=MATERIAL1
**
*DENSITY
       7860.,
**
*CONDUCTIVITY, TYPE=ISO
         1.0,
**
*SPECIFIC HEAT
        450.,
**
** Step  1, Default Heat Transfer Step
** LoadCase, Default
**
*STEP, AMPLITUDE=RAMP, INC=10
Steady State Heat Transfer
**
This load case is the default load case that always appears
*HEAT TRANSFER, STEADY STATE
         0.1,          1.
**
*NSET, NSET=TOP, GENERATE
  211,  231,    1
*NSET, NSET=BOTTOM, GENERATE
   2, 	20,		1
*NSET, NSET=LEFT, GENERATE
   1,	211, 	21
*NSET, NSET=RIGHT, GENERATE
   21,  231,	21
*ELSET, ELSET=HEATSOURCE1, GENERATE
       1,    400,       1
**
** Top
**
*BOUNDARY, OP=NEW
TOP, 11, 11, 	  20.
**
** Bottom
**
*BOUNDARY, OP=NEW
BOTTOM, 11, 11, 	20.
**
** Left
**
*BOUNDARY, OP=NEW
LEFT, 11, 11, 	  20.
**
** Right
**
*BOUNDARY, OP=NEW
RIGHT, 11, 11, 	  20.
**
** HeatSource1
**
*DFLUX, OP=NEW
HEATSOURCE1, BF,         0.
**
*FILM, OP=NEW
*CFLUX, OP=NEW
**
*NODE PRINT, FREQ=1
NT,
**
*EL PRINT, POS=INTEG, FREQ=0
**
*EL PRINT, POS=NODES, FREQ=0
**
*EL PRINT, POS=CENTR, FREQ=0
**
*EL PRINT, POS=AVERAGE, FREQ=0
**
*MODAL PRINT, FREQ=99999
**
*PRINT, FREQ=1
** NODE OUTPUT REQUESTS
**
*OUTPUT, FIELD, FREQ=1
*NODE OUTPUT
NT,
**
** ELEMENT OUTPUT REQUESTS
** NONE
** MODAL OUTPUT REQUESTS
** NONE
**
*END STEP
