*Heading
** Job name: square_p01_20x20B_abq Model name: Model-1
** Generated by: Abaqus/CAE 6.10-1
*Preprint, echo=NO, model=NO, history=NO, contact=NO
**
** PARTS
**
*Part, name=square
*Node
      1,           0.,           0.
      2, 0.00499999989,           0.
      3, 0.00999999978,           0.
      4, 0.0149999997,           0.
      5, 0.0199999996,           0.
      6, 0.0250000004,           0.
      7, 0.0299999993,           0.
      8, 0.0350000001,           0.
      9, 0.0399999991,           0.
     10, 0.0450000018,           0.
     11, 0.0500000007,           0.
     12, 0.0549999997,           0.
     13, 0.0599999987,           0.
     14, 0.0649999976,           0.
     15, 0.0700000003,           0.
     16,  0.075000003,           0.
     17, 0.0799999982,           0.
     18, 0.0850000009,           0.
     19, 0.0900000036,           0.
     20, 0.0949999988,           0.
** ... 421 like lines cut
*Element, type=CPS3
  1,   1,   2,  23
  2,  23,  22,   1
  3,   2,   3,  24
  4,  24,  23,   2
  5,   3,   4,  25
  6,  25,  24,   3
  7,   4,   5,  26
  8,  26,  25,   4
  9,   5,   6,  27
 10,  27,  26,   5
 11,   6,   7,  28
 12,  28,  27,   6
 13,   7,   8,  29
 14,  29,  28,   7
 15,   8,   9,  30
 16,  30,  29,   8
 17,   9,  10,  31
 18,  31,  30,   9
 19,  10,  11,  32
 20,  32,  31,  10
** ... 780 like lines cut
*Nset, nset=LEFT, generate
   1,  421,   21
*Elset, elset=LEFT, generate
   2,  762,   40
*Nset, nset=RIGHT, generate
  21,  441,   21
*Elset, elset=RIGHT, generate
  39,  799,   40
*Nset, nset=BOTTOM, generate
  1,  21,   1
*Elset, elset=BOTTOM, generate
  1,  39,   2
*Nset, nset=TOP, generate
 421,  441,    1
*Elset, elset=TOP
 762, 764, 766, 768, 770, 772, 774, 776, 778, 780, 782, 784, 786, 788, 790, 792
 794, 796, 798, 799
*End Part
**  
**
** ASSEMBLY
**
*Assembly, name=Assembly
**  
*Instance, name=square-1, part=square
*End Instance
**  
*Nset, nset=_PickedSet9, internal, instance=square-1, generate
   1,  441,    1
*Elset, elset=_PickedSet9, internal, instance=square-1, generate
   1,  800,    1
*Nset, nset=_PickedSet12, internal, instance=square-1, generate
   1,  441,    1
*Elset, elset=_PickedSet12, internal, instance=square-1, generate
   1,  800,    1
*Nset, nset=_PickedSet13, internal, instance=square-1, generate
   1,  441,    1
*Elset, elset=_PickedSet13, internal, instance=square-1, generate
   1,  800,    1
*End Assembly
** 
** MATERIALS
** 
*Material, name=Material-1
*Conductivity
1.,
** 
** BOUNDARY CONDITIONS
** 
** Name: BC-1 Type: Temperature
*Boundary
_PickedSet12, 11, 11
** ----------------------------------------------------------------
** 
** STEP: Step-1
** 
*Step, name=Step-1
*Heat Transfer, steady state, deltmx=0.
1., 1., 1e-05, 1., 
** 
** BOUNDARY CONDITIONS
** 
** Name: BC-2 Type: Temperature
*Boundary
_PickedSet13, 11, 11
** 
** LOADS
** 
** Name: Load-1   Type: Body heat flux
*Dflux
_PickedSet9, BF, 1000.
** 
** OUTPUT REQUESTS
** 
*Restart, write, frequency=0
** 
** FIELD OUTPUT: F-Output-1
** 
*Output, field, variable=PRESELECT
*Output, history, frequency=0
*End Step
