*HEADING
ABAQUS job created on 25-Oct-12 at 19:21:26
**
*#node, 121
*#element, 200
**
*NODE
1, 0.0500000007, 0.0572169013
      2, 0.0437499993, 0.0463915989
      3, 0.0562499985, 0.0463915989
      4,           0.,           0.
      5,  0.100000001,           0.
      6,  0.100000001,  0.100000001
      7,           0.,  0.100000001
      8, 0.0125000002,           0.
      9, 0.0250000004,           0.
     10, 0.0375000015,           0.
     11, 0.0500000007,           0.
     12,       0.0625,           0.
     13,  0.075000003,           0.
     14, 0.0874999985,           0.
     15,  0.100000001, 0.0125000002
     16,  0.100000001, 0.0250000004
     17,  0.100000001, 0.0375000015
     18,  0.100000001, 0.0500000007
     19,  0.100000001,       0.0625
     20,  0.100000001,  0.075000003
** ... 66 like lines cut
**
*ELEMENT, TYPE=DS3 , ELSET=MATERIAL1_PROPERTIES
1, 1, 2, 3
  2, 54, 32, 53
  3, 86, 77, 83
  4, 51, 24, 50
  5, 66, 45, 44
  6, 82, 64, 67
  7, 70, 41, 40
  8, 78, 74, 65
  9, 15, 14,  5
 10, 48, 14, 15
 11, 67, 64, 38
 12, 39, 12, 13
 13, 41, 11, 40
 14, 42, 10, 41
 15, 43,  9, 42
 16, 22, 21,  6
 17, 52, 21, 22
 18, 76, 68, 50
 19, 45, 19, 44
 20, 46, 18, 45
** ... 118 like lines cut
**
** Material1_Properties
**
*SHELL SECTION, ELSET=MATERIAL1_PROPERTIES, MATERIAL=MATERIAL1
       0.001,       5
**
** Material1
** Date: 25-Oct-12           Time: 18:13:37
**
*MATERIAL, NAME=MATERIAL1
**
*DENSITY
       7860.,
**
*CONDUCTIVITY, TYPE=ISO
         1.,
**
*SPECIFIC HEAT
        450.,
**
** Step  1, Default Heat Transfer Step
** LoadCase, Default
**
*STEP, AMPLITUDE=RAMP, INC=10
Steady State Heat Transfer
**
This load case is the default load case that always appears
*HEAT TRANSFER, STEADY STATE
         0.1,          1.
**
*NSET, NSET=ALL_BOUNDARY, GENERATE
4,  35,   1
*ELSET, ELSET=HEATSOURCE1, GENERATE
       1,     138,       1
**
**
** Temperature
**
*BOUNDARY, OP=NEW
ALL_BOUNDARY,  11, 11,     0.
**
** HeatSource1
**
*DFLUX, OP=NEW
HEATSOURCE1, BF,         0.
**
*FILM, OP=NEW
*CFLUX, OP=NEW
**
*NODE PRINT, FREQ=1
NT,
**
*EL PRINT, POS=INTEG, FREQ=0
**
*EL PRINT, POS=NODES, FREQ=0
**
*EL PRINT, POS=CENTR, FREQ=0
**
*EL PRINT, POS=AVERAGE, FREQ=0
**
*MODAL PRINT, FREQ=99999
**
*PRINT, FREQ=1
** NODE OUTPUT REQUESTS
**
*OUTPUT, FIELD, FREQ=1
*NODE OUTPUT
NT,
**
** ELEMENT OUTPUT REQUESTS
** NONE
** MODAL OUTPUT REQUESTS
** NONE
**
*END STEP
