*Heading
** Job name: square_p01_10x10C_abq Model name: Model-1
** Generated by: Abaqus/CAE 6.10-1
*Preprint, echo=NO, model=NO, history=NO, contact=NO
**
** PARTS
**
*Part, name=square
*Node
      1, 0.0450000018, 0.0471131988
      2, 0.0549999997, 0.0471131988
      3, 0.0500000007, 0.0557735004
      4,           0.,           0.
      5,  0.100000001,           0.
      6,  0.100000001,  0.100000001
      7,           0.,  0.100000001
      8, 0.00999999978,           0.
      9, 0.0199999996,           0.
     10, 0.0299999993,           0.
     11, 0.0399999991,           0.
     12, 0.0500000007,           0.
     13, 0.0599999987,           0.
     14, 0.0700000003,           0.
     15, 0.0799999982,           0.
     16, 0.0900000036,           0.
     17,  0.100000001, 0.00999999978
     18,  0.100000001, 0.0199999996
     19,  0.100000001, 0.0299999993
     20,  0.100000001, 0.0399999991
** ... 113 like lines cut
*Element, type=CPS3
1, 1, 2, 3
  2,  72,  39,  71
  3, 119,  75,  62
  4,  67,  29,  66
  5,  56,  24,  55
  6,  85,  60,  59
  7,  51,  13,  50
  8,  47,  43,   8
  9,  76,   5,  17
 10,  76,  16,   5
 11,  77,  61,  60
 12,  49,  15,  48
 13,  50,  14,  49
 14,  52,  12,  51
 15,  53,  11,  52
 16,  78,  53,  52
 17,  54,  10,  53
 18,  79,   6,  26
 19,  79,  25,   6
 20, 117,  80,  55
** ... 204 like lines cut
*Nset, nset=LEFT
  4,  7, 35, 36, 37, 38, 39, 40, 41, 42, 43
*Elset, elset=LEFT
  27,  36,  37,  38,  98, 100, 102, 104, 106, 119
*Nset, nset=RIGHT
  5,  6, 17, 18, 19, 20, 21, 22, 23, 24, 25
*Elset, elset=RIGHT
   9,  19,  67,  70,  72,  74,  76,  78,  80, 109
*Nset, nset=BOTTOM
  4,  5,  8,  9, 10, 11, 12, 13, 14, 15, 16
*Elset, elset=BOTTOM
 10, 36, 51, 53, 56, 58, 60, 62, 64, 66
*Nset, nset=TOP
  6,  7, 26, 27, 28, 29, 30, 31, 32, 33, 34
*Elset, elset=TOP
  18,  28,  81,  84,  86,  88,  90,  92,  94, 115
*End Part
**  
**
** ASSEMBLY
**
*Assembly, name=Assembly
**  
*Instance, name=square-1, part=square
*End Instance
**  
*Nset, nset=_PickedSet14, internal, instance=square-1, generate
   1,  133,    1
*Elset, elset=_PickedSet14, internal, instance=square-1, generate
   2,  224,    1
*Nset, nset=_PickedSet15, internal, instance=square-1, generate
   1,  133,    1
*Elset, elset=_PickedSet15, internal, instance=square-1, generate
   2,  224,    1
*End Assembly
** 
** MATERIALS
** 
*Material, name=Material-1
*Conductivity
1.,
** 
** BOUNDARY CONDITIONS
** 
** Name: BC-1 Type: Temperature
*Boundary
_PickedSet14, 11, 11
** ----------------------------------------------------------------
** 
** STEP: Step-1
** 
*Step, name=Step-1
*Heat Transfer, steady state, deltmx=0.
1., 1., 1e-05, 1., 
** 
** BOUNDARY CONDITIONS
** 
** Name: BC-2 Type: Temperature
*Boundary
_PickedSet15, 11, 11
** 
** LOADS
** 
** Name: Load-1   Type: Body heat flux
*Dflux
_PickedSet9, BF, 1000.
** 
** OUTPUT REQUESTS
** 
*Restart, write, frequency=0
** 
** FIELD OUTPUT: F-Output-1
** 
*Output, field, variable=PRESELECT
*Output, history, frequency=0
*End Step
