*HEADING
ABAQUS job created on 25-Oct-12 at 19:21:26
**
*#node, 961
*#element, 1800
**
*NODE
  1,           0.,           0.
      2, 0.00333333341,           0.
      3, 0.00666666683,           0.
      4, 0.00999999978,           0.
      5, 0.0133333337,           0.
      6, 0.0166666675,           0.
      7, 0.0199999996,           0.
      8, 0.0233333334,           0.
      9, 0.0266666673,           0.
     10, 0.0299999993,           0.
     11, 0.0333333351,           0.
     12, 0.0366666652,           0.
     13, 0.0399999991,           0.
     14,  0.043333333,           0.
     15, 0.0466666669,           0.
     16, 0.0500000007,           0.
     17, 0.0533333346,           0.
     18, 0.0566666685,           0.
     19, 0.0599999987,           0.
     20, 0.0633333325,           0.
** ... 941 like lines cut
**
*ELEMENT, TYPE=DS3 , ELSET=MATERIAL1_PROPERTIES
  1,   1,   2,  33
   2,  33,  32,   1
   3,   2,   3,  34
   4,  34,  33,   2
   5,   3,   4,  35
   6,  35,  34,   3
   7,   4,   5,  36
   8,  36,  35,   4
   9,   5,   6,  37
  10,  37,  36,   5
  11,   6,   7,  38
  12,  38,  37,   6
  13,   7,   8,  39
  14,  39,  38,   7
  15,   8,   9,  40
  16,  40,  39,   8
  17,   9,  10,  41
  18,  41,  40,   9
  19,  10,  11,  42
  20,  42,  41,  10
** ... 1780 like lines cut
**
** Material1_Properties
**
*SHELL SECTION, ELSET=MATERIAL1_PROPERTIES, MATERIAL=MATERIAL1
       0.001,       5
**
** Material1
** Date: 25-Oct-12           Time: 18:13:37
**
*MATERIAL, NAME=MATERIAL1
**
*DENSITY
       7860.,
**
*CONDUCTIVITY, TYPE=ISO
         1.,
**
*SPECIFIC HEAT
        450.,
**
** Step  1, Default Heat Transfer Step
** LoadCase, Default
**
*STEP, AMPLITUDE=RAMP, INC=10
Steady State Heat Transfer
**
This load case is the default load case that always appears
*HEAT TRANSFER, STEADY STATE
         0.1,          1.
**
*NSET, NSET=LEFT_TEMPERATURE, GENERATE
  1,  931,   31
*NSET, NSET=RIGHT_TEMPERATURE, GENERATE
 31,  961,   31
*ELSET, ELSET=HEATFLUX_BOTTOM, GENERATE
  1,  59,   2
*ELSET, ELSET=HEATFLUX_TOP, GENERATE
 1742,  1800,     2
*ELSET, ELSET=HEATSOURCE1, GENERATE
  1,    1800,    1
**
**
** Left_Temperature
**
*BOUNDARY, OP=NEW
LEFT_TEMPERATURE,  11, 11,     0.
**
** Right_Temperature
**
*BOUNDARY, OP=NEW
RIGHT_TEMPERATURE, 11, 11, 	  0.
**
** HeatFlux_top
**
*DFLUX, OP=NEW
HEATFLUX_TOP, S1,       0.
**
** HeatFlux_bottom
**
*DFLUX, OP=NEW
HEATFLUX_BOTTOM, S1,       0.
**
** HeatSource1
**
*DFLUX, OP=NEW
HEATSOURCE1, BF,         1000.
**
*FILM, OP=NEW
*CFLUX, OP=NEW
**
*NODE PRINT, FREQ=1
NT,
**
*EL PRINT, POS=INTEG, FREQ=0
**
*EL PRINT, POS=NODES, FREQ=0
**
*EL PRINT, POS=CENTR, FREQ=0
**
*EL PRINT, POS=AVERAGE, FREQ=0
**
*MODAL PRINT, FREQ=99999
**
*PRINT, FREQ=1
** NODE OUTPUT REQUESTS
**
*OUTPUT, FIELD, FREQ=1
*NODE OUTPUT
NT,
**
** ELEMENT OUTPUT REQUESTS
** NONE
** MODAL OUTPUT REQUESTS
** NONE
**
*END STEP
