*HEADING
ABAQUS job created on 25-Oct-12 at 19:21:26
**
*#node, 6561
*#element, 12800
**
*NODE
       1,            0.,            0.
       2,       0.00125,            0.
       3,        0.0025,            0.
       4,       0.00375,            0.
       5,         0.005,            0.
       6,       0.00625,            0.
       7,        0.0075,            0.
       8,       0.00875,            0.
       9,          0.01,            0.
      10,       0.01125,            0.
      11,        0.0125,            0.
      12,       0.01375,            0.
      13,         0.015,            0.
      14,       0.01625,            0.
      15,        0.0175,            0.
      16,       0.01875,            0.
      17,          0.02,            0.
      18,       0.02125,            0.
      19,        0.0225,            0.
      20,       0.02375,            0.
** ... 6541 like lines cut
**
**
*ELEMENT, TYPE=DS3 , ELSET=MATERIAL1_PROPERTIES
      1,      83,      82,       1
       2,       1,       2,      83
       3,       2,       3,      83
       4,      84,      83,       3
       5,      85,      84,       3
       6,       3,       4,      85
       7,       4,       5,      85
       8,      86,      85,       5
       9,      87,      86,       5
      10,       5,       6,      87
      11,       6,       7,      87
      12,      88,      87,       7
      13,      89,      88,       7
      14,       7,       8,      89
      15,       8,       9,      89
      16,      90,      89,       9
      17,      91,      90,       9
      18,       9,      10,      91
      19,      10,      11,      91
      20,      92,      91,      11
** ... 12780 like lines cut
**
** Material1_Properties
**
*SHELL SECTION, ELSET=MATERIAL1_PROPERTIES, MATERIAL=MATERIAL1
       0.001,       5
**
** Material1
** Date: 25-Oct-12           Time: 18:13:37
**
*MATERIAL, NAME=MATERIAL1
**
*DENSITY
       7860.,
**
*CONDUCTIVITY, TYPE=ISO
         1.,
**
*SPECIFIC HEAT
        450.,
**
** Step  1, Default Heat Transfer Step
** LoadCase, Default
**
*STEP, AMPLITUDE=RAMP, INC=10
Steady State Heat Transfer
**
This load case is the default load case that always appears
*HEAT TRANSFER, STEADY STATE
         0.1,          1.
**
*NSET, NSET=LEFT_TEMPERATURE, GENERATE
		 1,  6481, 81
*NSET, NSET=RIGHT_TEMPERATURE, GENERATE
		81,  6561, 81
*ELSET, ELSET=HEATFLUX_BOTTOM
	   2,       3,       6,       7,      10,      11,      14,      15,
      18,      19,      22,      23,      26,      27,      30,      31,
      34,      35,      38,      39,      42,      43,      46,      47,
      50,      51,      54,      55,      58,      59,      62,      63,
      66,      67,      70,      71,      74,      75,      78,      79,
      82,      83,      86,      87,      90,      91,      94,      95,
      98,      99,     102,     103,     106,     107,     110,     111,
     114,     115,     118,     119,     122,     123,     126,     127,
     130,     131,     134,     135,     138,     139,     142,     143,
     146,     147,     150,     151,     154,     155,     158,      159
*ELSET, ELSET=HEATFLUX_TOP
   12642,   12643,   12646,   12647,   12650,   12651,   12654,   12655,
   12658,   12659,   12662,   12663,   12666,   12667,   12670,   12671,
   12674,   12675,   12678,   12679,   12682,   12683,   12686,   12687,
   12690,   12691,   12694,   12695,   12698,   12699,   12702,   12703,
   12706,   12707,   12710,   12711,   12714,   12715,   12718,   12719,
   12722,   12723,   12726,   12727,   12730,   12731,   12734,   12735,
   12738,   12739,   12742,   12743,   12746,   12747,   12750,   12751,
   12754,   12755,   12758,   12759,   12762,   12763,   12766,   12767,
   12770,   12771,   12774,   12775,   12778,   12779,   12782,   12783,
   12786,   12787,   12790,   12791,   12794,   12795,   12798,    12799
*ELSET, ELSET=HEATSOURCE1, GENERATE
       1,     12800,       1
**
**
** Left_Temperature
**
*BOUNDARY, OP=NEW
LEFT_TEMPERATURE,  11, 11,     0.
**
** Right_Temperature
**
*BOUNDARY, OP=NEW
RIGHT_TEMPERATURE, 11, 11, 	  0.
**
** HeatFlux_top
**
*DFLUX, OP=NEW
HEATFLUX_TOP, S1,       0.
**
** HeatFlux_bottom
**
*DFLUX, OP=NEW
HEATFLUX_BOTTOM, S1,       0.
**
** HeatSource1
**
*DFLUX, OP=NEW
HEATSOURCE1, BF,         1000.
**
*FILM, OP=NEW
*CFLUX, OP=NEW
**
*NODE PRINT, FREQ=1
NT,
**
*EL PRINT, POS=INTEG, FREQ=0
**
*EL PRINT, POS=NODES, FREQ=0
**
*EL PRINT, POS=CENTR, FREQ=0
**
*EL PRINT, POS=AVERAGE, FREQ=0
**
*MODAL PRINT, FREQ=99999
**
*PRINT, FREQ=1
** NODE OUTPUT REQUESTS
**
*OUTPUT, FIELD, FREQ=1
*NODE OUTPUT
NT,
**
** ELEMENT OUTPUT REQUESTS
** NONE
** MODAL OUTPUT REQUESTS
** NONE
**
*END STEP
