*HEADING
ABAQUS job created on 25-Oct-12 at 19:21:26
**
*#node, 1681
*#element, 3200
**
*NODE
   1,           0.,           0.
      2, 0.00249999994,           0.
      3, 0.00499999989,           0.
      4, 0.00749999983,           0.
      5, 0.00999999978,           0.
      6, 0.0125000002,           0.
      7, 0.0149999997,           0.
      8, 0.0175000001,           0.
      9, 0.0199999996,           0.
     10, 0.0225000009,           0.
     11, 0.0250000004,           0.
     12, 0.0274999999,           0.
     13, 0.0299999993,           0.
     14, 0.0324999988,           0.
     15, 0.0350000001,           0.
     16, 0.0375000015,           0.
     17, 0.0399999991,           0.
     18, 0.0425000004,           0.
     19, 0.0450000018,           0.
     20, 0.0474999994,           0.
** ... 1661 like lines cut
**
**
*ELEMENT, TYPE=DS3 , ELSET=MATERIAL1_PROPERTIES
  1,    1,    2,   43
   2,   43,   42,    1
   3,    2,    3,   44
   4,   44,   43,    2
   5,    3,    4,   45
   6,   45,   44,    3
   7,    4,    5,   46
   8,   46,   45,    4
   9,    5,    6,   47
  10,   47,   46,    5
  11,    6,    7,   48
  12,   48,   47,    6
  13,    7,    8,   49
  14,   49,   48,    7
  15,    8,    9,   50
  16,   50,   49,    8
  17,    9,   10,   51
  18,   51,   50,    9
  19,   10,   11,   52
  20,   52,   51,   10
** ... 3180 like lines cut
**
** Material1_Properties
**
*SHELL SECTION, ELSET=MATERIAL1_PROPERTIES, MATERIAL=MATERIAL1
       0.001,       5
**
** Material1
** Date: 25-Oct-12           Time: 18:13:37
**
*MATERIAL, NAME=MATERIAL1
**
*DENSITY
       7860.,
**
*CONDUCTIVITY, TYPE=ISO
         202.,
**
*SPECIFIC HEAT
        450.,
**
** Step  1, Default Heat Transfer Step
** LoadCase, Default
**
*STEP, AMPLITUDE=RAMP, INC=10
Steady State Heat Transfer
**
This load case is the default load case that always appears
*HEAT TRANSFER, STEADY STATE
         0.1,          1.
**
*NSET, NSET=TOP, GENERATE
1642,  1680,     1
*ELSET, ELSET=HEATFLUX_BOTTOM, GENERATE
  1,  79,   2
*ELSET, ELSET=HEATSOURCE1, GENERATE
  1,    3200,    1
**
**
** Top_Temperature
**
*BOUNDARY, OP=NEW
TOP,  11, 11,     20.
**
** HeatFlux_bottom
**
*DFLUX, OP=NEW
HEATFLUX_BOTTOM, S1,       2000.
**
** HeatSource1
**
*DFLUX, OP=NEW
HEATSOURCE1, BF,            0.
**
*FILM, OP=NEW
*CFLUX, OP=NEW
**
*NODE PRINT, FREQ=1
NT,
**
*EL PRINT, POS=INTEG, FREQ=0
**
*EL PRINT, POS=NODES, FREQ=0
**
*EL PRINT, POS=CENTR, FREQ=0
**
*EL PRINT, POS=AVERAGE, FREQ=0
**
*MODAL PRINT, FREQ=99999
**
*PRINT, FREQ=1
** NODE OUTPUT REQUESTS
**
*OUTPUT, FIELD, FREQ=1
*NODE OUTPUT
NT,
**
** ELEMENT OUTPUT REQUESTS
** NONE
** MODAL OUTPUT REQUESTS
** NONE
**
*END STEP
