*HEADING
ABAQUS job created on 25-Oct-12 at 19:21:26
**
*#node, 1681
*#element, 3200
**
*NODE
 1,            0.,            0.
       2,        0.0025,            0.
       3,         0.005,            0.
       4,        0.0075,            0.
       5,          0.01,            0.
       6,        0.0125,            0.
       7,         0.015,            0.
       8,        0.0175,            0.
       9,          0.02,            0.
      10,        0.0225,            0.
      11,         0.025,            0.
      12,        0.0275,            0.
      13,          0.03,            0.
      14,        0.0325,            0.
      15,         0.035,            0.
      16,        0.0375,            0.
      17,          0.04,            0.
      18,        0.0425,            0.
      19,         0.045,            0.
      20,        0.0475,            0.
** ... 1661 like lines cut
**
**
*ELEMENT, TYPE=DS3 , ELSET=MATERIAL1_PROPERTIES
 1,      43,      42,       1
       2,       1,       2,      43
       3,       2,       3,      43
       4,      44,      43,       3
       5,      45,      44,       3
       6,       3,       4,      45
       7,       4,       5,      45
       8,      46,      45,       5
       9,      47,      46,       5
      10,       5,       6,      47
      11,       6,       7,      47
      12,      48,      47,       7
      13,      49,      48,       7
      14,       7,       8,      49
      15,       8,       9,      49
      16,      50,      49,       9
      17,      51,      50,       9
      18,       9,      10,      51
      19,      10,      11,      51
      20,      52,      51,      11
** ... 3180 like lines cut
**
** Material1_Properties
**
*SHELL SECTION, ELSET=MATERIAL1_PROPERTIES, MATERIAL=MATERIAL1
       0.001,       5
**
** Material1
** Date: 25-Oct-12           Time: 18:13:37
**
*MATERIAL, NAME=MATERIAL1
**
*DENSITY
       7860.,
**
*CONDUCTIVITY, TYPE=ISO
         1.,
**
*SPECIFIC HEAT
        450.,
**
** Step  1, Default Heat Transfer Step
** LoadCase, Default
**
*STEP, AMPLITUDE=RAMP, INC=10
Steady State Heat Transfer
**
This load case is the default load case that always appears
*HEAT TRANSFER, STEADY STATE
         0.1,          1.
**
*NSET, NSET=LEFT, GENERATE
    1,  1641,    41
*NSET, NSET=RIGHT, GENERATE
   41,  1681,    41
*NSET, NSET=BOTTOM, GENERATE
  2,  40,   1
*NSET, NSET=TOP, GENERATE
	1642,  1680,     1
*ELSET, ELSET=HEATSOURCE1, GENERATE
  1,    3200,    1
**
** Left_Temperature
**
*BOUNDARY, OP=NEW
LEFT,  11, 11,     0.
**
** Right_Temperature
**
*BOUNDARY, OP=NEW
RIGHT, 11, 11, 	  0.
**
** Top_Temperature
**
*BOUNDARY, OP=NEW
TOP,  11, 11,     0.
**
** Bottom_Temperature
**
*BOUNDARY, OP=NEW
BOTTOM,  11, 11,     0.
**
** HeatSource1
**
*DFLUX, OP=NEW
HEATSOURCE1, BF,         0.
**
*FILM, OP=NEW
*CFLUX, OP=NEW
**
*NODE PRINT, FREQ=1
NT,
**
*EL PRINT, POS=INTEG, FREQ=0
**
*EL PRINT, POS=NODES, FREQ=0
**
*EL PRINT, POS=CENTR, FREQ=0
**
*EL PRINT, POS=AVERAGE, FREQ=0
**
*MODAL PRINT, FREQ=99999
**
*PRINT, FREQ=1
** NODE OUTPUT REQUESTS
**
*OUTPUT, FIELD, FREQ=1
*NODE OUTPUT
NT,
**
** ELEMENT OUTPUT REQUESTS
** NONE
** MODAL OUTPUT REQUESTS
** NONE
**
*END STEP
