*Heading
** Job name: square_p01_20x20C_abq Model name: Model-1
** Generated by: Abaqus/CAE 6.10-1
*Preprint, echo=NO, model=NO, history=NO, contact=NO
**
** PARTS
**
*Part, name=square
*Node
      1, 0.0474999994, 0.0485565998
      2, 0.0524999984, 0.0485565998
      3, 0.0500000007,  0.052886799
      4,           0.,           0.
      5,  0.100000001,           0.
      6,  0.100000001,  0.100000001
      7,           0.,  0.100000001
      8, 0.00499999989,           0.
      9, 0.00999999978,           0.
     10, 0.0149999997,           0.
     11, 0.0199999996,           0.
     12, 0.0250000004,           0.
     13, 0.0299999993,           0.
     14, 0.0350000001,           0.
     15, 0.0399999991,           0.
     16, 0.0450000018,           0.
     17, 0.0500000007,           0.
     18, 0.0549999997,           0.
     19, 0.0599999987,           0.
     20, 0.0649999976,           0.
** ... 477 like lines cut
*Element, type=CPS3
1, 1, 2, 3
  2, 140,  72, 139
  3, 147, 118, 117
  4, 126,  52, 125
  5, 104,  40, 103
  6, 221, 190, 169
  7,  92,  19,  91
  8,  87,   8,   9
  9,  27,  26,   5
 10, 116,  27,  28
 11, 148, 115, 114
 12, 194, 149,  25
 13, 150,  23,  24
 14, 222,  88, 150
 15,  89,  22,  88
 16,  90,  21,  89
 17,  91,  20,  90
 18,  93,  18,  92
 19,  94,  17,  93
 20,  95,  16,  94
** ... 892 like lines cut
*Nset, nset=LEFT
  4,  7, 65, 66, 67, 68, 69, 70, 71, 72, 73, 74, 75, 76, 77, 78
 79, 80, 81, 82, 83
*Elset, elset=LEFT
  25,  47,  48,  66,  70, 182, 184, 186, 188, 190, 192, 194, 196, 198, 200, 202
 204, 206, 208, 224
*Nset, nset=RIGHT
  5,  6, 27, 28, 29, 30, 31, 32, 33, 34, 35, 36, 37, 38, 39, 40
 41, 42, 43, 44, 45
*Elset, elset=RIGHT
   9,  10,  28,  32, 121, 124, 126, 128, 130, 132, 134, 136, 138, 140, 142, 144
 146, 148, 227, 331
*Nset, nset=BOTTOM
  4,  5,  8,  9, 10, 11, 12, 13, 14, 15, 16, 17, 18, 19, 20, 21
 22, 23, 24, 25, 26
*Elset, elset=BOTTOM
   8,   9,  13,  66,  93,  96,  98, 100, 102, 104, 106, 108, 110, 112, 114, 116
 118, 120, 215, 305
*Nset, nset=TOP
  6,  7, 46, 47, 48, 49, 50, 51, 52, 53, 54, 55, 56, 57, 58, 59
 60, 61, 62, 63, 64
*Elset, elset=TOP
  28,  29,  47,  51, 151, 154, 156, 158, 160, 162, 164, 166, 168, 170, 172, 174
 176, 178, 235, 357
*End Part
**  
**
** ASSEMBLY
**
*Assembly, name=Assembly
**  
*Instance, name=square-1, part=square
*End Instance
**  
*Nset, nset=_PickedSet9, internal, instance=square-1, generate
   1,  497,    1
*Elset, elset=_PickedSet9, internal, instance=square-1, generate
   1,  912,    1
*Nset, nset=_PickedSet16, internal, instance=square-1, generate
   1,  497,    1
*Elset, elset=_PickedSet16, internal, instance=square-1, generate
   2,  912,    1
*End Assembly
** 
** MATERIALS
** 
*Material, name=Material-1
*Conductivity
1.,
** ----------------------------------------------------------------
** 
** STEP: Step-1
** 
*Step, name=Step-1
*Heat Transfer, steady state, deltmx=0.
1., 1., 1e-05, 1., 
** 
** BOUNDARY CONDITIONS
** 
** Name: BC-2 Type: Temperature
*Boundary
_PickedSet16, 11, 11
** 
** LOADS
** 
** Name: Load-1   Type: Body heat flux
*Dflux
_PickedSet9, BF, 1000.
** 
** OUTPUT REQUESTS
** 
*Restart, write, frequency=0
** 
** FIELD OUTPUT: F-Output-1
** 
*Output, field, variable=PRESELECT
*Output, history, frequency=0
*End Step
