*HEADING
ABAQUS job created on 25-Oct-12 at 19:21:26
**
*#node, 2601
*#element, 5000
**
*NODE
       1,            0.,            0.
       2,         0.002,            0.
       3,         0.004,            0.
       4,         0.006,            0.
       5,         0.008,            0.
       6,          0.01,            0.
       7,         0.012,            0.
       8,         0.014,            0.
       9,         0.016,            0.
      10,         0.018,            0.
      11,          0.02,            0.
      12,         0.022,            0.
      13,         0.024,            0.
      14,         0.026,            0.
      15,         0.028,            0.
      16,          0.03,            0.
      17,         0.032,            0.
      18,         0.034,            0.
      19,         0.036,            0.
      20,         0.038,            0.
** ... 2581 like lines cut
**
**
*ELEMENT, TYPE=DS3 , ELSET=MATERIAL1_PROPERTIES
 1,      53,      52,       1
       2,       1,       2,      53
       3,       2,       3,      53
       4,      54,      53,       3
       5,      55,      54,       3
       6,       3,       4,      55
       7,       4,       5,      55
       8,      56,      55,       5
       9,      57,      56,       5
      10,       5,       6,      57
      11,       6,       7,      57
      12,      58,      57,       7
      13,      59,      58,       7
      14,       7,       8,      59
      15,       8,       9,      59
      16,      60,      59,       9
      17,      61,      60,       9
      18,       9,      10,      61
      19,      10,      11,      61
      20,      62,      61,      11
** ... 4980 like lines cut
**
** Material1_Properties
**
*SHELL SECTION, ELSET=MATERIAL1_PROPERTIES, MATERIAL=MATERIAL1
       0.001,       5
**
** Material1
** Date: 25-Oct-12           Time: 18:13:37
**
*MATERIAL, NAME=MATERIAL1
**
*DENSITY
       7860.,
**
*CONDUCTIVITY, TYPE=ISO
         1.,
**
*SPECIFIC HEAT
        450.,
**
** Step  1, Default Heat Transfer Step
** LoadCase, Default
**
*STEP, AMPLITUDE=RAMP, INC=10
Steady State Heat Transfer
**
This load case is the default load case that always appears
*HEAT TRANSFER, STEADY STATE
         0.1,          1.
**
*NSET, NSET=LEFT_TEMPERATURE, GENERATE
1, 2551,51
*NSET, NSET=RIGHT_TEMPERATURE, GENERATE
51, 2601,51
*ELSET, ELSET=HEATFLUX_BOTTOM
       2,       3,       6,       7,      10,      11,      14,      15,
      18,      19,      22,      23,      26,      27,      30,      31,
      34,      35,      38,      39,      42,      43,      46,      47,
      50,      51,      54,      55,      58,      59,      62,      63,
      66,      67,      70,      71,      74,      75,      78,      79,
      82,      83,      86,      87,      90,      91,      94,      95,
      98,       99
*ELSET, ELSET=HEATFLUX_TOP

*ELSET, ELSET=HEATSOURCE1, GENERATE
       1,     5000,       1
**
**
** Left_Temperature
**
*BOUNDARY, OP=NEW
LEFT_TEMPERATURE,  11, 11,     0.
**
** Right_Temperature
**
*BOUNDARY, OP=NEW
RIGHT_TEMPERATURE, 11, 11, 	  0.
**
** HeatFlux_top
**
*DFLUX, OP=NEW
HEATFLUX_TOP, S1,       0.
**
** HeatFlux_bottom
**
*DFLUX, OP=NEW
HEATFLUX_BOTTOM, S1,       0.
**
** HeatSource1
**
*DFLUX, OP=NEW
HEATSOURCE1, BF,         1000.
**
*FILM, OP=NEW
*CFLUX, OP=NEW
**
*NODE PRINT, FREQ=1
NT,
**
*EL PRINT, POS=INTEG, FREQ=0
**
*EL PRINT, POS=NODES, FREQ=0
**
*EL PRINT, POS=CENTR, FREQ=0
**
*EL PRINT, POS=AVERAGE, FREQ=0
**
*MODAL PRINT, FREQ=99999
**
*PRINT, FREQ=1
** NODE OUTPUT REQUESTS
**
*OUTPUT, FIELD, FREQ=1
*NODE OUTPUT
NT,
**
** ELEMENT OUTPUT REQUESTS
** NONE
** MODAL OUTPUT REQUESTS
** NONE
**
*END STEP
