*Heading
** Job name: square_p1_abq_5x5C_temp_all Model name: Model-1
** Generated by: Abaqus/CAE 6.13-2
*Preprint, echo=NO, model=NO, history=NO, contact=NO
**
** PARTS
**
*Part, name=Part-1
*Node
      1, 0.0500000007,     0.061547
      2, 0.0399999991, 0.0442265011
      3, 0.0599999987, 0.0442265011
      4,           0.,           0.
      5,  0.100000001,           0.
      6,  0.100000001,  0.100000001
      7,           0.,  0.100000001
      8, 0.0199999996,           0.
      9, 0.0399999991,           0.
     10, 0.0599999987,           0.
     11, 0.0799999982,           0.
     12,  0.100000001, 0.0199999996
     13,  0.100000001, 0.0399999991
     14,  0.100000001, 0.0599999987
     15,  0.100000001, 0.0799999982
     16, 0.0799999982,  0.100000001
     17, 0.0599999987,  0.100000001
     18, 0.0399999991,  0.100000001
     19, 0.0199999996,  0.100000001
     20,           0., 0.0799999982
** ... 17 like lines cut
*Element, type=DC2D3
1, 1, 2, 3
 2, 25,  2,  1
 3, 37, 27, 20
 4, 35, 34, 24
 5, 32, 24,  3
 6, 33, 12, 13
 7, 29, 10, 11
 8, 28, 23,  8
 9, 12, 11,  5
10, 29, 26, 10
11, 26,  9, 10
12, 30, 28,  8
13, 16, 15,  6
14, 31, 14, 15
15, 32, 14, 31
16, 33, 32,  3
17, 20, 19,  7
18, 27, 25,  1
19, 34, 17, 18
20, 35, 24, 31
** ... 32 like lines cut
*Nset, nset=_PickedSet7, internal, generate
  1,  37,   1
*Elset, elset=_PickedSet7, internal, generate
  1,  52,   1
** Section: Section-1
*Solid Section, elset=_PickedSet7, material=Material-1
,
*End Part
**  
**
** ASSEMBLY
**
*Assembly, name=Assembly
**  
*Instance, name=Part-1-1, part=Part-1
*End Instance
**  
*Nset, nset=all_boundary, instance=Part-1-1, generate
  4,  23,   1
*Elset, elset=all_boundary, instance=Part-1-1
  6,  7,  9, 11, 13, 14, 17, 19, 21, 22, 27, 31, 33, 40, 42, 51
*End Assembly
** 
** MATERIALS
** 
*Material, name=Material-1
*Conductivity
1.,
** ----------------------------------------------------------------
** 
** STEP: heat transfer
** 
*Step, name="heat transfer", nlgeom=NO
*Heat Transfer, end=PERIOD, deltmx=0.1
1., 1., 1e-05, 1., 
** 
** BOUNDARY CONDITIONS
** 
** Name: all_boundary Type: Temperature
*Boundary
all_boundary, 11, 11
** 
** OUTPUT REQUESTS
** 
*Restart, write, frequency=0
** 
** FIELD OUTPUT: F-Output-1
** 
*Output, field, variable=PRESELECT
*Output, history, frequency=0
*End Step
