*HEADING
ABAQUS job created on 25-Oct-12 at 19:21:26
**
*#node, 121
*#element, 200
**
*NODE
 1, 0.0500000007,  0.075000003
      2, 0.0375000015,       0.0625
      3, 0.0500000007,       0.0625
      4, 0.0250000004, 0.0500000007
      5, 0.0375000015, 0.0500000007
      6, 0.0125000002, 0.0375000015
      7, 0.0250000004, 0.0375000015
      8,           0., 0.0250000004
      9,           0., 0.0375000015
     10,  0.100000001,  0.075000003
     11, 0.0874999985,       0.0625
     12,  0.100000001,       0.0625
     13, 0.0250000004,           0.
     14, 0.0375000015, 0.0125000002
     15, 0.0250000004, 0.0125000002
     16,  0.075000003, 0.0500000007
     17, 0.0874999985, 0.0500000007
     18, 0.0500000007, 0.0250000004
     19, 0.0375000015, 0.0250000004
     20,       0.0625, 0.0375000015
** ... 61 like lines cut
**
*ELEMENT, TYPE=DS3 , ELSET=MATERIAL1_PROPERTIES
1, 1, 2, 3
2, 2, 4, 5
3, 4, 6, 7
4, 8, 6, 9
5, 10, 11, 12
6, 13, 14, 15
7, 11, 16, 17
8, 14, 18, 19
 9, 16, 20, 21
10, 18, 20, 22
11, 23, 24, 25
12, 24, 26, 27
13, 26, 28, 27
14, 28, 29, 30
15, 29, 14, 30
16, 14, 13, 31
17, 15, 32, 13
18, 33, 32,  8
19, 12, 11, 34
20, 16, 11, 35
** ... 108 like lines cut
**
** Material1_Properties
**
*SHELL SECTION, ELSET=MATERIAL1_PROPERTIES, MATERIAL=MATERIAL1
       0.001,       5
**
** Material1
** Date: 25-Oct-12           Time: 18:13:37
**
*MATERIAL, NAME=MATERIAL1
**
*DENSITY
       7860.,
**
*CONDUCTIVITY, TYPE=ISO
         1.,
**
*SPECIFIC HEAT
        450.,
**
** Step  1, Default Heat Transfer Step
** LoadCase, Default
**
*STEP, AMPLITUDE=RAMP, INC=10
Steady State Heat Transfer
**
This load case is the default load case that always appears
*HEAT TRANSFER, STEADY STATE
         0.1,          1.
**
*NSET, NSET=ALL_BOUNDARY
  8,  9, 10, 12, 13, 23, 25, 27, 30, 31, 33, 34, 40, 41, 42, 44
 49, 51, 55, 58, 60, 61, 64, 65, 67, 69, 70, 71, 73, 76, 79, 81
*ELSET, ELSET=HEATSOURCE1, GENERATE
       1,     138,       1
**
**
** Temperature
**
*BOUNDARY, OP=NEW
ALL_BOUNDARY,  11, 11,     0.
**
** HeatSource1
**
*DFLUX, OP=NEW
HEATSOURCE1, BF,         0.
**
*FILM, OP=NEW
*CFLUX, OP=NEW
**
*NODE PRINT, FREQ=1
NT,
**
*EL PRINT, POS=INTEG, FREQ=0
**
*EL PRINT, POS=NODES, FREQ=0
**
*EL PRINT, POS=CENTR, FREQ=0
**
*EL PRINT, POS=AVERAGE, FREQ=0
**
*MODAL PRINT, FREQ=99999
**
*PRINT, FREQ=1
** NODE OUTPUT REQUESTS
**
*OUTPUT, FIELD, FREQ=1
*NODE OUTPUT
NT,
**
** ELEMENT OUTPUT REQUESTS
** NONE
** MODAL OUTPUT REQUESTS
** NONE
**
*END STEP
