*Heading
** Job name: square_p01_80x80C_abq Model name: Model-1
** Generated by: Abaqus/CAE 6.10-1
*Preprint, echo=NO, model=NO, history=NO, contact=NO
**
** PARTS
**
*Part, name=square
*Node
      1, 0.0493750013, 0.0496391505
      2, 0.0506250001, 0.0496391505
      3, 0.0500000007, 0.0507217012
      4,           0.,           0.
      5,  0.100000001,           0.
      6,  0.100000001,  0.100000001
      7,           0.,  0.100000001
      8, 0.00124999997,           0.
      9, 0.00249999994,           0.
     10, 0.00374999992,           0.
     11, 0.00499999989,           0.
     12, 0.00625000009,           0.
     13, 0.00749999983,           0.
     14, 0.00875000004,           0.
     15, 0.00999999978,           0.
     16, 0.0112500004,           0.
     17, 0.0125000002,           0.
     18, 0.0137499999,           0.
     19, 0.0149999997,           0.
     20, 0.0162499994,           0.
** ... 6589 like lines cut
*Element, type=CPS3
1, 1, 2, 3
    2, 1692,  247,  248
    3, 2135, 2043, 1618
    4, 2269, 2118, 1690
    5, 2522, 1615, 2408
    6, 2424, 2408, 1615
    7, 2567, 2504, 2278
    8, 2635, 2166, 2340
    9, 2425, 2164, 2371
   10, 2541, 2218, 2372
   11, 2538, 2217, 2346
   12, 2426, 2165, 2373
   13, 2515, 2216, 2374
   14, 2525, 2281, 2387
   15, 2554, 2258, 2409
   16, 2776, 2768, 1605
   17, 2427, 2415, 1604
   18, 2428, 2215, 2386
   19, 2429, 2163, 2370
   20, 2283, 2117, 1674
** ... 12876 like lines cut
*Nset, nset=LEFT
   4,   7, 245, 246, 247, 248, 249, 250, 251, 252, 253, 254, 255, 256, 257, 258
 259, 260, 261, 262, 263, 264, 265, 266, 267, 268, 269, 270, 271, 272, 273, 274
 275, 276, 277, 278, 279, 280, 281, 282, 283, 284, 285, 286, 287, 288, 289, 290
 291, 292, 293, 294, 295, 296, 297, 298, 299, 300, 301, 302, 303, 304, 305, 306
 307, 308, 309, 310, 311, 312, 313, 314, 315, 316, 317, 318, 319, 320, 321, 322
 323,
*Elset, elset=LEFT
    2,  107,  109,  162,  594,  605,  617,  623,  627,  640,  675,  685,  687,  688,  764, 1882
 2051, 2645, 2955, 3008, 3009, 3010, 3012, 3014, 3015, 3016, 3020, 3024, 3025, 3026, 3028, 3029
 3030, 3035, 3039, 3040, 3041, 3044, 3045, 3049, 3051, 3053, 3054, 3055, 3059, 3061, 3074, 3075
 3190, 3192, 3195, 3202, 3204, 3206, 3208, 3210, 3212, 3214, 3218, 3220, 3240, 3252, 3254, 3256
 3257, 3262, 3586, 3606, 3608, 3626, 3628, 3636, 3638, 3648, 3650, 3656, 3658, 3664, 3676, 3678
*Nset, nset=RIGHT
   5,   6,  87,  88,  89,  90,  91,  92,  93,  94,  95,  96,  97,  98,  99, 100
 101, 102, 103, 104, 105, 106, 107, 108, 109, 110, 111, 112, 113, 114, 115, 116
 117, 118, 119, 120, 121, 122, 123, 124, 125, 126, 127, 128, 129, 130, 131, 132
 133, 134, 135, 136, 137, 138, 139, 140, 141, 142, 143, 144, 145, 146, 147, 148
 149, 150, 151, 152, 153, 154, 155, 156, 157, 158, 159, 160, 161, 162, 163, 164
 165,
*Elset, elset=RIGHT
   40,   64,  296,  387,  393,  407,  437,  498,  530,  538,  769, 1795, 1801, 2127, 2849, 2902
 2904, 2906, 2908, 2909, 2910, 2914, 2918, 2919, 2920, 2922, 2923, 2924, 2929, 2933, 2934, 2935
 2938, 2939, 2943, 2945, 2947, 2948, 2949, 2953, 3064, 3068, 3070, 3113, 3119, 3122, 3123, 3126
 3131, 3132, 3133, 3134, 3136, 3137, 3140, 3144, 3146, 3222, 3224, 3225, 3226, 3248, 3277, 3279
 3280, 3386, 3398, 3406, 3408, 3426, 3428, 3436, 3438, 3448, 3450, 3456, 3458, 3464, 3476, 3478
*Nset, nset=BOTTOM
  4,  5,  8,  9, 10, 11, 12, 13, 14, 15, 16, 17, 18, 19, 20, 21
 22, 23, 24, 25, 26, 27, 28, 29, 30, 31, 32, 33, 34, 35, 36, 37
 38, 39, 40, 41, 42, 43, 44, 45, 46, 47, 48, 49, 50, 51, 52, 53
 54, 55, 56, 57, 58, 59, 60, 61, 62, 63, 64, 65, 66, 67, 68, 69
 70, 71, 72, 73, 74, 75, 76, 77, 78, 79, 80, 81, 82, 83, 84, 85
 86,
*Elset, elset=BOTTOM
   88,  129,  168,  170,  181,  328,  329,  344,  346,  359,  392, 1316, 1318, 1387, 1390, 2849
 2851, 2853, 2855, 2856, 2857, 2861, 2865, 2866, 2867, 2869, 2870, 2871, 2876, 2880, 2881, 2882
 2885, 2886, 2890, 2892, 2894, 2895, 2896, 2900, 3008, 3071, 3078, 3084, 3085, 3089, 3090, 3092
 3094, 3095, 3097, 3101, 3102, 3104, 3105, 3108, 3110, 3112, 3116, 3231, 3233, 3236, 3237, 3242
 3244, 3286, 3298, 3306, 3308, 3326, 3328, 3336, 3338, 3348, 3350, 3356, 3358, 3364, 3376, 3378
*Nset, nset=TOP
   6,   7, 166, 167, 168, 169, 170, 171, 172, 173, 174, 175, 176, 177, 178, 179
 180, 181, 182, 183, 184, 185, 186, 187, 188, 189, 190, 191, 192, 193, 194, 195
 196, 197, 198, 199, 200, 201, 202, 203, 204, 205, 206, 207, 208, 209, 210, 211
 212, 213, 214, 215, 216, 217, 218, 219, 220, 221, 222, 223, 224, 225, 226, 227
 228, 229, 230, 231, 232, 233, 234, 235, 236, 237, 238, 239, 240, 241, 242, 243
 244,
*Elset, elset=TOP
   41,  541,  549,  552,  557,  560,  570,  574,  577,  582,  583,  585,  590,  593,  596, 2804
 2818, 2902, 2955, 2957, 2959, 2961, 2962, 2963, 2967, 2971, 2972, 2973, 2975, 2976, 2977, 2982
 2986, 2987, 2988, 2991, 2992, 2996, 2998, 3000, 3001, 3002, 3006, 3147, 3150, 3153, 3156, 3159
 3162, 3164, 3166, 3170, 3172, 3174, 3175, 3178, 3180, 3183, 3188, 3264, 3266, 3268, 3270, 3272
 3273, 3486, 3498, 3506, 3508, 3526, 3528, 3536, 3538, 3548, 3550, 3556, 3558, 3564, 3576, 3578
*End Part
**  
**
** ASSEMBLY
**
*Assembly, name=Assembly
**  
*Instance, name=square-1, part=square
*End Instance
**  
*Nset, nset=_PickedSet9, internal, instance=square-1, generate
    1,  6609,     1
*Elset, elset=_PickedSet9, internal, instance=square-1, generate
     1,  12896,      1
*Nset, nset=_PickedSet12, internal, instance=square-1, generate
    1,  6609,     1
*Elset, elset=_PickedSet12, internal, instance=square-1, generate
     1,  12896,      1
*Nset, nset=_PickedSet13, internal, instance=square-1, generate
    1,  6609,     1
*Elset, elset=_PickedSet13, internal, instance=square-1, generate
     1,  12896,      1
*End Assembly
** 
** MATERIALS
** 
*Material, name=Material-1
*Conductivity
1.,
** 
** BOUNDARY CONDITIONS
** 
** Name: BC-1 Type: Temperature
*Boundary
_PickedSet12, 11, 11
** ----------------------------------------------------------------
** 
** STEP: Step-1
** 
*Step, name=Step-1
*Heat Transfer, steady state, deltmx=0.
1., 1., 1e-05, 1., 
** 
** BOUNDARY CONDITIONS
** 
** Name: BC-2 Type: Temperature
*Boundary
_PickedSet13, 11, 11
** 
** LOADS
** 
** Name: Load-1   Type: Body heat flux
*Dflux
_PickedSet9, BF, 1000.
** 
** OUTPUT REQUESTS
** 
*Restart, write, frequency=0
** 
** FIELD OUTPUT: F-Output-1
** 
*Output, field, variable=PRESELECT
*Output, history, frequency=0
*End Step
