*HEADING
ABAQUS job created on 25-Oct-12 at 19:21:26
**
*#node, 961
*#element, 1800
**
*NODE
 1,           0.,           0.
      2, 0.00526315812,           0.
      3, 0.0105263162,           0.
      4, 0.0157894734,           0.
      5, 0.0210526325,           0.
      6, 0.0263157897,           0.
      7, 0.0315789469,           0.
      8,  0.036842104,           0.
      9,  0.042105265,           0.
     10, 0.0473684222,           0.
     11, 0.0526315793,           0.
     12, 0.0578947365,           0.
     13, 0.0631578937,           0.
     14, 0.0684210509,           0.
     15, 0.0736842081,           0.
     16, 0.0789473653,           0.
     17, 0.0842105299,           0.
     18, 0.0894736871,           0.
     19, 0.0947368443,           0.
     20,  0.100000001,           0.
** ... 380 like lines cut
**
*ELEMENT, TYPE=DS3 , ELSET=MATERIAL1_PROPERTIES
1,   1,   2,  22
  2,  22,  21,   1
  3,   2,   3,  23
  4,  23,  22,   2
  5,   3,   4,  24
  6,  24,  23,   3
  7,   4,   5,  25
  8,  25,  24,   4
  9,   5,   6,  26
 10,  26,  25,   5
 11,   6,   7,  27
 12,  27,  26,   6
 13,   7,   8,  28
 14,  28,  27,   7
 15,   8,   9,  29
 16,  29,  28,   8
 17,   9,  10,  30
 18,  30,  29,   9
 19,  10,  11,  31
 20,  31,  30,  10
** ... 702 like lines cut
**
** Material1_Properties
**
*SHELL SECTION, ELSET=MATERIAL1_PROPERTIES, MATERIAL=MATERIAL1
       0.001,       5
**
** Material1
** Date: 25-Oct-12           Time: 18:13:37
**
*MATERIAL, NAME=MATERIAL1
**
*DENSITY
       7860.,
**
*CONDUCTIVITY, TYPE=ISO
         1.,
**
*SPECIFIC HEAT
        450.,
**
** Step  1, Default Heat Transfer Step
** LoadCase, Default
**
*STEP, AMPLITUDE=RAMP, INC=10
Steady State Heat Transfer
**
This load case is the default load case that always appears
*HEAT TRANSFER, STEADY STATE
         0.1,          1.
**
*NSET, NSET=LEFT_TEMPERATURE, GENERATE
    1,  381,   20
*NSET, NSET=RIGHT_TEMPERATURE, GENERATE
   20,  400,   20
*ELSET, ELSET=HEATFLUX_BOTTOM, GENERATE
 1,  37,   2
*ELSET, ELSET=HEATFLUX_TOP, GENERATE
 686,  722,    2
*ELSET, ELSET=HEATSOURCE1, GENERATE
  1,    722,    1
**
**
** Left_Temperature
**
*BOUNDARY, OP=NEW
LEFT_TEMPERATURE,  11, 11,     0.
**
** Right_Temperature
**
*BOUNDARY, OP=NEW
RIGHT_TEMPERATURE, 11, 11, 	  0.
**
** HeatFlux_top
**
*DFLUX, OP=NEW
HEATFLUX_TOP, S1,       0.
**
** HeatFlux_bottom
**
*DFLUX, OP=NEW
HEATFLUX_BOTTOM, S1,       0.
**
** HeatSource1
**
*DFLUX, OP=NEW
HEATSOURCE1, BF,         1000.
**
*FILM, OP=NEW
*CFLUX, OP=NEW
**
*NODE PRINT, FREQ=1
NT,
**
*EL PRINT, POS=INTEG, FREQ=0
**
*EL PRINT, POS=NODES, FREQ=0
**
*EL PRINT, POS=CENTR, FREQ=0
**
*EL PRINT, POS=AVERAGE, FREQ=0
**
*MODAL PRINT, FREQ=99999
**
*PRINT, FREQ=1
** NODE OUTPUT REQUESTS
**
*OUTPUT, FIELD, FREQ=1
*NODE OUTPUT
NT,
**
** ELEMENT OUTPUT REQUESTS
** NONE
** MODAL OUTPUT REQUESTS
** NONE
**
*END STEP
