*Heading
** Job name: square_p01_40x40C_abq Model name: Model-1
** Generated by: Abaqus/CAE 6.10-1
*Preprint, echo=NO, model=NO, history=NO, contact=NO
**
** PARTS
**
*Part, name=square
*Node
      1, 0.0487499982, 0.0492783003
      2, 0.0512499996, 0.0492783003
      3, 0.0500000007, 0.0514434017
      4,           0.,           0.
      5,  0.100000001,           0.
      6,  0.100000001,  0.100000001
      7,           0.,  0.100000001
      8, 0.00249999994,           0.
      9, 0.00499999989,           0.
     10, 0.00749999983,           0.
     11, 0.00999999978,           0.
     12, 0.0125000002,           0.
     13, 0.0149999997,           0.
     14, 0.0175000001,           0.
     15, 0.0199999996,           0.
     16, 0.0225000009,           0.
     17, 0.0250000004,           0.
     18, 0.0274999999,           0.
     19, 0.0299999993,           0.
     20, 0.0324999988,           0.
** ... 1661 like lines cut
*Element, type=CPS3
1, 1, 2, 3
   2,  640,  490,  560
   3,  708,  218,  640
   4,  979,  237,  877
   5, 1236,  255, 1140
   6, 1532,  282, 1434
   7, 1604, 1505,  274
   8, 1289, 1261,  311
   9,  982,  950,  329
  10,  709,  688,  167
  11,  627,  145,  146
  12,  627,  192,  488
  13,  641,  489,  625
  14,  625,  624,  330
  15,  854,  783,  733
  16, 1115, 1020,  973
  17, 1379, 1364,  275
  18, 1380,  281, 1308
  19, 1116, 1025,  255
  20,  893,  238,  837
** ... 3180 like lines cut
*Nset, nset=LEFT
   4,   7, 125, 126, 127, 128, 129, 130, 131, 132, 133, 134, 135, 136, 137, 138
 139, 140, 141, 142, 143, 144, 145, 146, 147, 148, 149, 150, 151, 152, 153, 154
 155, 156, 157, 158, 159, 160, 161, 162, 163
*Elset, elset=LEFT
   11,   45,   46,   87,  284,  294,  298,  302,  308,  510,  761,  787,  788,  789,  791,  795
  796,  800,  804,  805,  806,  807,  811,  814,  816,  895,  901,  904,  920,  922,  923,  926
 1074, 1082, 1088, 1090, 1096, 1098, 1110, 1112
*Nset, nset=RIGHT
  5,  6, 47, 48, 49, 50, 51, 52, 53, 54, 55, 56, 57, 58, 59, 60
 61, 62, 63, 64, 65, 66, 67, 68, 69, 70, 71, 72, 73, 74, 75, 76
 77, 78, 79, 80, 81, 82, 83, 84, 85
*Elset, elset=RIGHT
   64,  201,  208,  212,  216,  222,  330,  655,  709,  735,  737,  739,  743,  744,  748,  752
  753,  754,  755,  759,  822,  823,  824,  857,  863,  866,  868,  869,  871,  872,  910,  911
  982,  990,  996,  998, 1004, 1006, 1018, 1020
*Nset, nset=BOTTOM
  4,  5,  8,  9, 10, 11, 12, 13, 14, 15, 16, 17, 18, 19, 20, 21
 22, 23, 24, 25, 26, 27, 28, 29, 30, 31, 32, 33, 34, 35, 36, 37
 38, 39, 40, 41, 42, 43, 44, 45, 46
*Elset, elset=BOTTOM
  74,  90,  92, 150, 168, 184, 200, 431, 709, 711, 713, 717, 718, 722, 726, 727
 728, 729, 733, 787, 818, 837, 838, 840, 841, 842, 844, 845, 847, 850, 854, 917
 936, 944, 950, 952, 958, 960, 972, 974
*Nset, nset=TOP
   6,   7,  86,  87,  88,  89,  90,  91,  92,  93,  94,  95,  96,  97,  98,  99
 100, 101, 102, 103, 104, 105, 106, 107, 108, 109, 110, 111, 112, 113, 114, 115
 116, 117, 118, 119, 120, 121, 122, 123, 124
*Elset, elset=TOP
   67,   69,  240,  245,  254,  262,  272,  274,  279,  283,  704,  735,  761,  763,  765,  769
  770,  774,  778,  779,  780,  781,  785,  827,  878,  882,  884,  886,  887,  890,  892,  930
 1028, 1036, 1042, 1044, 1050, 1052, 1064, 1066
*End Part
**  
**
** ASSEMBLY
**
*Assembly, name=Assembly
**  
*Instance, name=square-1, part=square
*End Instance
**  
*Nset, nset=_PickedSet17, internal, instance=square-1, generate
    1,  1681,     1
*Elset, elset=_PickedSet17, internal, instance=square-1, generate
    2,  3200,     1
*End Assembly
** 
** MATERIALS
** 
*Material, name=Material-1
*Conductivity
1.,
** ----------------------------------------------------------------
** 
** STEP: Step-1
** 
*Step, name=Step-1
*Heat Transfer, steady state, deltmx=0.
1., 1., 1e-05, 1., 
** 
** BOUNDARY CONDITIONS
** 
** Name: BC-2 Type: Temperature
*Boundary
_PickedSet17, 11, 11
** 
** LOADS
** 
** Name: Load-1   Type: Body heat flux
*Dflux
_PickedSet9, BF, 1000.
** 
** OUTPUT REQUESTS
** 
*Restart, write, frequency=0
** 
** FIELD OUTPUT: F-Output-1
** 
*Output, field, variable=PRESELECT
*Output, history, frequency=0
*End Step
