*HEADING
ABAQUS job created on 25-Oct-12 at 19:21:26
**
*#node, 121
*#element, 200
**
*NODE
       1,            0.,            0.
       2,          0.01,            0.
       3,          0.02,            0.
       4,          0.03,            0.
       5,          0.04,            0.
       6,          0.05,            0.
       7,          0.06,            0.
       8,          0.07,            0.
       9,          0.08,            0.
      10,          0.09,            0.
      11,           0.1,            0.
      12,            0.,          0.01
      13,          0.01,          0.01
      14,          0.02,          0.01
      15,          0.03,          0.01
      16,          0.04,          0.01
      17,          0.05,          0.01
      18,          0.06,          0.01
      19,          0.07,          0.01
      20,          0.08,          0.01
** ... 101 like lines cut
**
**
*ELEMENT, TYPE=DS3 , ELSET=MATERIAL1_PROPERTIES
       1,      13,      12,       1
       2,       1,       2,      13
       3,       2,       3,      13
       4,      14,      13,       3
       5,      15,      14,       3
       6,       3,       4,      15
       7,       4,       5,      15
       8,      16,      15,       5
       9,      17,      16,       5
      10,       5,       6,      17
      11,       6,       7,      17
      12,      18,      17,       7
      13,      19,      18,       7
      14,       7,       8,      19
      15,       8,       9,      19
      16,      20,      19,       9
      17,      21,      20,       9
      18,       9,      10,      21
      19,      10,      11,      21
      20,      22,      21,      11
** ... 180 like lines cut
**
** Material1_Properties
**
*SHELL SECTION, ELSET=MATERIAL1_PROPERTIES, MATERIAL=MATERIAL1
       0.001,       5
**
** Material1
** Date: 25-Oct-12           Time: 18:13:37
**
*MATERIAL, NAME=MATERIAL1
**
*DENSITY
       7860.,
**
*CONDUCTIVITY, TYPE=ISO
         202.,
**
*SPECIFIC HEAT
        450.,
**
** Step  1, Default Heat Transfer Step
** LoadCase, Default
**
*STEP, AMPLITUDE=RAMP, INC=10
Steady State Heat Transfer
**
This load case is the default load case that always appears
*HEAT TRANSFER, STEADY STATE
         0.1,          1.
**
*NSET, NSET=LEFT_TEMPERATURE
		 1
*ELSET, ELSET=HEATSOURCE1, GENERATE
       1,     200,       1
** Left_Temperature
**
*BOUNDARY, OP=NEW
LEFT_TEMPERATURE,  11, 11,     0.
**
**
** HeatSource1
**
*DFLUX, OP=NEW
HEATSOURCE1, BF,         0.
**
*FILM, OP=NEW
*CFLUX, OP=NEW
**
*NODE PRINT, FREQ=1
NT,
**
*EL PRINT, POS=INTEG, FREQ=0
**
*EL PRINT, POS=NODES, FREQ=0
**
*EL PRINT, POS=CENTR, FREQ=0
**
*EL PRINT, POS=AVERAGE, FREQ=0
**
*MODAL PRINT, FREQ=99999
**
*PRINT, FREQ=1
** NODE OUTPUT REQUESTS
**
*OUTPUT, FIELD, FREQ=1
*NODE OUTPUT
NT,
**
** ELEMENT OUTPUT REQUESTS
** NONE
** MODAL OUTPUT REQUESTS
** NONE
**
*END STEP
