*Heading
** Job name: temp_all_unstructured_1832_elems Model name: Model-1
** Generated by: Abaqus/CAE 6.13-2
*Preprint, echo=NO, model=NO, history=NO, contact=NO
**
** PARTS
**
*Part, name=Part-1
*Node
      1,  0.100000001,           0.
      2,           0.,           0.
      3,  0.100000001, 0.0500000007
      4,           0., 0.0500000007
      5, 0.0974999964,           0.
      6, 0.0949999988,           0.
      7, 0.0925000012,           0.
      8, 0.0900000036,           0.
      9, 0.0874999985,           0.
     10, 0.0850000009,           0.
     11, 0.0825000033,           0.
     12, 0.0799999982,           0.
     13, 0.0775000006,           0.
     14,  0.075000003,           0.
     15, 0.0724999979,           0.
     16, 0.0700000003,           0.
     17, 0.0675000027,           0.
     18, 0.0649999976,           0.
     19,       0.0625,           0.
     20, 0.0599999987,           0.
** ... 957 like lines cut
*Element, type=CPS3
   1, 233, 227,  43
   2, 178,  76, 177
   3,   5,   1,  62
   4, 176,  62,  61
   5, 313, 235, 311
   6, 235, 212,   7
   7, 212,   8,   7
   8, 314, 140, 212
   9, 237, 123, 214
  10, 271, 144, 143
  11, 142,  11,  10
  12, 210,  12,  11
  13, 214, 123, 122
  14, 189,  87, 188
  15, 145,  15, 121
  16, 146,  16, 145
  17, 147,  17, 146
  18, 148,  18, 147
  19, 149,  19, 148
  20, 150,  20, 149
** ... 1812 like lines cut
*Nset, nset=OUTER, generate
   1,  120,    1
*Elset, elset=OUTER
   3,   4,   7,  11,  12,  36,  42,  43,  51,  61,  64,  68, 100, 101, 107, 110
 111, 113, 114, 119, 120, 121, 123, 124, 125, 126, 128, 129, 132, 134, 136, 138
 140, 145, 150, 152, 155, 156, 157, 168, 170, 172, 174, 176, 178, 180, 184, 186
 188, 190, 192, 194, 196, 198, 200, 202, 204, 206, 208, 210, 211, 212, 214, 216
 218, 219, 222, 224, 226, 228, 231, 234, 236, 238, 240, 242, 244, 246, 248, 250
 252, 254, 256, 258, 260, 262, 264, 266, 268, 270, 272, 274, 276, 278, 280, 286
 288, 290, 292, 293, 296, 302, 318, 319, 321, 327, 330, 331, 333, 335, 337, 370
 380, 445, 481, 483
*End Part
**  
**
** ASSEMBLY
**
*Assembly, name=Assembly
**  
*Instance, name=Part-1-1, part=Part-1
*End Instance
**  
*End Assembly
** 
** MATERIALS
** 
*Material, name=Material-1
*Conductivity
1.,
** ----------------------------------------------------------------
** 
** STEP: Step-1
** 
*Step, name=Step-1, nlgeom=NO
*Heat Transfer, end=PERIOD, deltmx=0.1
1., 1., 1e-05, 1., 
** 
** OUTPUT REQUESTS
** 
*Restart, write, frequency=0
*Print, solve=NO
** 
** FIELD OUTPUT: F-Output-1
** 
*Output, field, variable=PRESELECT
*Output, history, frequency=0
*End Step
