*Heading
** Job name: temp_all_unstructured_442_elems Model name: Model-1
** Generated by: Abaqus/CAE 6.13-2
*Preprint, echo=NO, model=NO, history=NO, contact=NO
**
** PARTS
**
*Part, name=Part-1
*Node
      1,  0.100000001,           0.
      2,           0.,           0.
      3,  0.100000001, 0.0500000007
      4,           0., 0.0500000007
      5, 0.0949999988,           0.
      6, 0.0900000036,           0.
      7, 0.0850000009,           0.
      8, 0.0799999982,           0.
      9,  0.075000003,           0.
     10, 0.0700000003,           0.
     11, 0.0649999976,           0.
     12, 0.0599999987,           0.
     13, 0.0549999997,           0.
     14, 0.0500000007,           0.
     15, 0.0450000018,           0.
     16, 0.0399999991,           0.
     17, 0.0350000001,           0.
     18, 0.0299999993,           0.
     19, 0.0250000004,           0.
     20, 0.0199999996,           0.
** ... 232 like lines cut
*Element, type=CPS3
  1, 123, 120,  23
  2,  70,  40,  69
  3,   5,   1,  32
  4,  68,   5,  32
  5, 103,  87,   7
  6, 221, 147, 153
  7, 103,   7,   6
  8, 124, 116,  77
  9,  74,  44,  73
 10,  89,  10,  61
 11, 125,  72, 110
 12, 161, 125, 110
 13,  65,  14,  62
 14,  66,  15,  65
 15,  67,  16,  66
 16,  90,  17,  67
 17, 170, 138, 118
 18, 193, 148, 152
 19, 112,  86,  85
 20, 127,  91, 126
** ... 422 like lines cut
*Nset, nset=OUTER, generate
  1,  60,   1
*Elset, elset=OUTER
   3,   7,  22,  23,  26,  30,  31,  50,  51,  54,  58,  59,  60,  61,  62,  63
  64,  68,  69,  70,  72,  75,  76,  78,  80,  82,  84,  86,  89,  92,  94,  96
  98, 100, 105, 108, 110, 112, 117, 120, 122, 124, 126, 128, 130, 132, 134, 136
 140, 142, 153, 166, 168, 175, 177, 227
*End Part
**  
**
** ASSEMBLY
**
*Assembly, name=Assembly
**  
*Instance, name=Part-1-1, part=Part-1
*End Instance
**  
*End Assembly
** 
** MATERIALS
** 
*Material, name=Material-1
*Conductivity
1.,
** ----------------------------------------------------------------
** 
** STEP: Step-1
** 
*Step, name=Step-1, nlgeom=NO
*Heat Transfer, end=PERIOD, deltmx=0.1
1., 1., 1e-05, 1., 
** 
** OUTPUT REQUESTS
** 
*Restart, write, frequency=0
*Print, solve=NO
** 
** FIELD OUTPUT: F-Output-1
** 
*Output, field, variable=PRESELECT
*Output, history, frequency=0
*End Step
